REMARK SMILES CCN(CC)[C@@H]1CCN(c2ccc(Nc3cc(-c4ccnc(N5CCn6c(cc7c6CC(C)(C)C7)C5=O)c4CO)cn(C)c3=O)nc2)[C@@H](C)C1
REMARK SMILES IDX 14 1 13 3 10 4 47 5 11 6 46 7 12 8 9 9 6 10 7 11 50 12 8 13
REMARK SMILES IDX 48 14 49 15 3 16 2 17 1 18 4 19 5 20 15 21 44 22 16 23 42 24
REMARK SMILES IDX 17 25 41 26 45 27 43 28 18 29 19 30 38 31 20 32 22 33 21 34
REMARK SMILES IDX 39 35 40 36 23 38 24 39 36 40 25 41 27 42 26 43 28 44 30 45
REMARK SMILES IDX 29 46 31 47 35 48 32 49 37 50 33 51 34 52
REMARK H PARENT 14 2 40 37
ROOT
ATOM      1  N   UNL     1       1.431   1.022  -1.247  1.00  0.00    -0.336 N 
ATOM      2  H   UNL     1       1.106   0.565  -2.091  1.00  0.00     0.168 HD
ENDROOT
BRANCH   1   3
ATOM      3  C   UNL     1       2.789   0.702  -1.038  1.00  0.00     0.130 A 
ATOM      4  C   UNL     1       5.482   0.116  -0.630  1.00  0.00     0.056 A 
ATOM      5  C   UNL     1       4.445  -0.428   0.126  1.00  0.00     0.139 A 
ATOM      6  C   UNL     1       5.094   0.981  -1.653  1.00  0.00     0.031 A 
ATOM      7  N   UNL     1       3.133  -0.159  -0.054  1.00  0.00    -0.237 NA
ATOM      8  C   UNL     1       3.744   1.260  -1.876  1.00  0.00     0.049 A 
BRANCH   4   9
ATOM      9  N   UNL     1       6.856  -0.125  -0.422  1.00  0.00    -0.367 N 
ATOM     10  C   UNL     1       9.439  -0.135  -0.211  1.00  0.00     0.060 C 
ATOM     11  C   UNL     1       8.763   0.150   1.122  1.00  0.00     0.040 C 
ATOM     12  C   UNL     1       8.877  -1.404  -0.877  1.00  0.00     0.044 C 
ATOM     13  C   UNL     1       7.259   0.365   0.913  1.00  0.00     0.118 C 
ATOM     14  C   UNL     1       7.335  -1.489  -0.737  1.00  0.00     0.080 C 
ATOM     15  C   UNL     1       6.739  -2.088  -2.025  1.00  0.00     0.031 C 
BRANCH  10  16
ATOM     16  N   UNL     1      10.979  -0.124  -0.035  1.00  0.00    -0.301 NA
BRANCH  16  17
ATOM     17  C   UNL     1      11.619   0.901  -0.972  1.00  0.00     0.081 C 
ATOM     18  C   UNL     1      11.375   2.312  -0.446  1.00  0.00     0.021 C 
ENDBRANCH  16  17
BRANCH  16  19
ATOM     19  C   UNL     1      11.721  -1.452  -0.091  1.00  0.00     0.081 C 
ATOM     20  C   UNL     1      11.545  -2.226   1.203  1.00  0.00     0.021 C 
ENDBRANCH  16  19
ENDBRANCH  10  16
ENDBRANCH   4   9
ENDBRANCH   1   3
BRANCH   1  21
ATOM     21  C   UNL     1       0.538   0.941  -0.186  1.00  0.00     0.107 A 
ATOM     22  C   UNL     1       0.842   1.777   1.057  1.00  0.00     0.274 A 
ATOM     23  C   UNL     1      -0.595   0.215  -0.197  1.00  0.00     0.042 A 
ATOM     24  N   UNL     1      -0.053   1.640   2.123  1.00  0.00    -0.316 N 
ATOM     25  C   UNL     1      -1.491   0.161   0.935  1.00  0.00     0.001 A 
ATOM     26  C   UNL     1      -1.190   0.867   2.039  1.00  0.00     0.097 A 
ATOM     27  O   UNL     1       1.790   2.559   1.085  1.00  0.00    -0.267 OA
ATOM     28  C   UNL     1       0.155   2.436   3.323  1.00  0.00     0.153 C 
BRANCH  25  29
ATOM     29  C   UNL     1      -2.712  -0.667   0.996  1.00  0.00    -0.006 A 
ATOM     30  C   UNL     1      -2.590  -1.944   1.552  1.00  0.00     0.029 A 
ATOM     31  C   UNL     1      -3.980  -0.192   0.596  1.00  0.00     0.028 A 
ATOM     32  C   UNL     1      -3.732  -2.683   1.759  1.00  0.00     0.114 A 
ATOM     33  C   UNL     1      -5.076  -1.026   0.857  1.00  0.00     0.141 A 
ATOM     34  N   UNL     1      -4.966  -2.232   1.475  1.00  0.00    -0.238 NA
BRANCH  31  35
ATOM     35  C   UNL     1      -4.148   1.188   0.024  1.00  0.00     0.196 C 
BRANCH  35  36
ATOM     36  O   UNL     1      -4.200   2.133   1.088  1.00  0.00    -0.392 OA
ATOM     37  H   UNL     1      -4.237   3.016   0.666  1.00  0.00     0.211 HD
ENDBRANCH  35  36
ENDBRANCH  31  35
BRANCH  33  38
ATOM     38  N   UNL     1      -6.396  -0.594   0.575  1.00  0.00    -0.289 N 
ATOM     39  C   UNL     1      -7.383  -0.808   1.640  1.00  0.00     0.149 C 
ATOM     40  C   UNL     1      -6.833  -0.621  -0.759  1.00  0.00     0.276 C 
ATOM     41  C   UNL     1      -8.572   0.129   1.479  1.00  0.00     0.144 C 
ATOM     42  C   UNL     1      -8.269  -0.402  -0.917  1.00  0.00     0.108 A 
ATOM     43  N   UNL     1      -9.091  -0.020   0.137  1.00  0.00    -0.339 N 
ATOM     44  C   UNL     1      -9.086  -0.534  -2.048  1.00  0.00     0.037 A 
ATOM     45  C   UNL     1     -10.347   0.140  -0.313  1.00  0.00     0.022 A 
ATOM     46  C   UNL     1     -10.388  -0.213  -1.633  1.00  0.00    -0.026 A 
ATOM     47  C   UNL     1     -11.628   0.565   0.280  1.00  0.00     0.061 C 
ATOM     48  C   UNL     1     -11.761  -0.115  -2.177  1.00  0.00     0.044 C 
ATOM     49  C   UNL     1     -12.643   0.160  -0.869  1.00  0.00    -0.026 C 
ATOM     50  O   UNL     1      -6.078  -0.786  -1.714  1.00  0.00    -0.267 OA
ATOM     51  C   UNL     1     -13.405  -1.109  -0.449  1.00  0.00     0.012 C 
ATOM     52  C   UNL     1     -13.646   1.287  -1.129  1.00  0.00     0.012 C 
ENDBRANCH  33  38
ENDBRANCH  25  29
ENDBRANCH   1  21
TORSDOF 10
