REMARK SMILES C[C@H]1CN(c2cnn(C)c2)CCN1c1ccc(Nc2cc(-c3ccnc(N4CCn5c(cc6c5CC(C)(C)C6)C4=O)c3CO)cn(C)c2=O)nc1
REMARK SMILES IDX 45 1 21 2 20 3 19 4 48 5 46 6 49 7 47 8 22 9 26 10 42 11
REMARK SMILES IDX 25 12 24 13 23 14 27 15 31 16 40 17 30 18 32 19 29 20 34 21
REMARK SMILES IDX 33 22 28 23 35 24 39 25 36 26 41 27 37 28 38 29 43 30 44 31
REMARK SMILES IDX 18 33 17 35 16 36 50 37 15 38 51 39 14 40 13 41 2 42 12 43
REMARK SMILES IDX 3 44 11 45 4 46 1 47 5 48 10 49 6 50 8 51 7 52 9 53
REMARK H PARENT 44 32 18 34
ROOT
ATOM      1  C   UNL     1       7.615  12.498   0.344  1.00  0.00     0.097 A 
ATOM      2  C   UNL     1       8.296  12.593   1.500  1.00  0.00     0.001 A 
ATOM      3  C   UNL     1       8.920  11.398   2.040  1.00  0.00     0.042 A 
ATOM      4  C   UNL     1       8.962  10.231   1.372  1.00  0.00     0.107 A 
ATOM      5  C   UNL     1       8.418  10.235  -0.064  1.00  0.00     0.274 A 
ATOM      6  N   UNL     1       7.620  11.337  -0.404  1.00  0.00    -0.316 N 
ATOM      7  O   UNL     1       8.727   9.368  -0.879  1.00  0.00    -0.267 OA
ATOM      8  C   UNL     1       6.981  11.343  -1.709  1.00  0.00     0.153 C 
ENDROOT
BRANCH   2   9
ATOM      9  C   UNL     1       8.402  13.907   2.167  1.00  0.00    -0.006 A 
ATOM     10  C   UNL     1       9.453  16.045   2.539  1.00  0.00     0.141 A 
ATOM     11  C   UNL     1       9.370  14.866   1.780  1.00  0.00     0.028 A 
ATOM     12  N   UNL     1       8.604  16.300   3.569  1.00  0.00    -0.238 NA
ATOM     13  C   UNL     1       7.670  15.383   3.882  1.00  0.00     0.114 A 
ATOM     14  C   UNL     1       7.540  14.175   3.232  1.00  0.00     0.029 A 
BRANCH  10  15
ATOM     15  N   UNL     1      10.481  17.003   2.349  1.00  0.00    -0.289 N 
ATOM     16  C   UNL     1      11.290  19.261   2.274  1.00  0.00     0.108 A 
ATOM     17  C   UNL     1      10.146  18.360   2.231  1.00  0.00     0.276 C 
ATOM     18  N   UNL     1      12.550  18.852   2.680  1.00  0.00    -0.339 N 
ATOM     19  C   UNL     1      11.370  20.619   1.965  1.00  0.00     0.037 A 
ATOM     20  C   UNL     1      12.796  17.497   3.115  1.00  0.00     0.144 C 
ATOM     21  C   UNL     1      13.401  19.890   2.576  1.00  0.00     0.022 A 
ATOM     22  C   UNL     1      12.711  20.990   2.149  1.00  0.00    -0.026 A 
ATOM     23  C   UNL     1      11.882  16.558   2.337  1.00  0.00     0.149 C 
ATOM     24  C   UNL     1      14.840  20.100   2.809  1.00  0.00     0.061 C 
ATOM     25  C   UNL     1      13.585  22.173   2.020  1.00  0.00     0.044 C 
ATOM     26  C   UNL     1      14.928  21.684   2.721  1.00  0.00    -0.026 C 
ATOM     27  O   UNL     1       9.002  18.774   2.051  1.00  0.00    -0.267 OA
ATOM     28  C   UNL     1      15.019  22.277   4.138  1.00  0.00     0.012 C 
ATOM     29  C   UNL     1      16.150  22.116   1.905  1.00  0.00     0.012 C 
ENDBRANCH  10  15
BRANCH  11  30
ATOM     30  C   UNL     1      10.216  14.646   0.555  1.00  0.00     0.196 C 
BRANCH  30  31
ATOM     31  O   UNL     1      11.358  13.868   0.883  1.00  0.00    -0.392 OA
ATOM     32  H   UNL     1      11.099  12.935   0.770  1.00  0.00     0.211 HD
ENDBRANCH  30  31
ENDBRANCH  11  30
ENDBRANCH   2   9
BRANCH   4  33
ATOM     33  N   UNL     1       9.543   9.077   1.881  1.00  0.00    -0.336 N 
ATOM     34  H   UNL     1       9.889   9.158   2.831  1.00  0.00     0.168 HD
BRANCH  33  35
ATOM     35  C   UNL     1       9.019   7.782   1.667  1.00  0.00     0.130 A 
ATOM     36  C   UNL     1       9.871   6.697   1.840  1.00  0.00     0.049 A 
ATOM     37  N   UNL     1       7.741   7.613   1.277  1.00  0.00    -0.237 NA
ATOM     38  C   UNL     1       9.428   5.411   1.511  1.00  0.00     0.031 A 
ATOM     39  C   UNL     1       7.349   6.357   0.940  1.00  0.00     0.139 A 
ATOM     40  C   UNL     1       8.149   5.214   0.997  1.00  0.00     0.056 A 
BRANCH  40  41
ATOM     41  N   UNL     1       7.687   4.007   0.472  1.00  0.00    -0.364 N 
ATOM     42  C   UNL     1       7.870   3.784  -1.009  1.00  0.00     0.098 C 
ATOM     43  C   UNL     1       7.891   2.792   1.293  1.00  0.00     0.138 C 
ATOM     44  C   UNL     1       8.761   2.546  -1.325  1.00  0.00     0.141 C 
ATOM     45  C   UNL     1       9.238   2.066   1.050  1.00  0.00     0.138 C 
ATOM     46  N   UNL     1       9.795   2.290  -0.304  1.00  0.00    -0.365 N 
ATOM     47  C   UNL     1       8.317   5.010  -1.820  1.00  0.00     0.033 C 
BRANCH  46  48
ATOM     48  C   UNL     1      11.066   2.771  -0.429  1.00  0.00     0.075 A 
ATOM     49  C   UNL     1      11.564   3.598  -1.413  1.00  0.00     0.134 A 
ATOM     50  C   UNL     1      12.174   2.555   0.420  1.00  0.00     0.161 A 
ATOM     51  N   UNL     1      12.851   3.893  -1.051  1.00  0.00    -0.274 N 
ATOM     52  N   UNL     1      13.251   3.273   0.071  1.00  0.00    -0.180 NA
ATOM     53  C   UNL     1      13.748   4.808  -1.719  1.00  0.00     0.173 C 
ENDBRANCH  46  48
ENDBRANCH  40  41
ENDBRANCH  33  35
ENDBRANCH   4  33
TORSDOF 8
