REMARK SMILES C[C@@H]1CN(c2ccc(Nc3cc(-c4ccnc(N5CCn6c(cc7c6CC(C)(C)C7)C5=O)c4CO)cn(C)c3=O)nc2)C[C@H](C)C1(F)F
REMARK SMILES IDX 36 1 12 2 11 3 10 4 39 5 37 6 40 7 38 8 13 9 17 10 33 11
REMARK SMILES IDX 16 12 15 13 14 14 18 15 22 16 31 17 21 18 23 19 20 20 25 21
REMARK SMILES IDX 24 22 19 23 26 24 30 25 27 26 32 27 28 28 29 29 34 30 35 31
REMARK SMILES IDX 9 33 8 35 7 36 41 37 6 38 42 39 5 40 4 41 3 42 43 43 2 44
REMARK SMILES IDX 44 45 46 46 1 47 45 48 47 49 48 50
REMARK H PARENT 35 32 9 34
ROOT
ATOM      1  C   UNL     1      -0.052   1.790  -0.738  1.00  0.00     0.097 A 
ATOM      2  C   UNL     1      -0.200   0.458  -0.611  1.00  0.00     0.001 A 
ATOM      3  C   UNL     1      -1.393  -0.159  -1.165  1.00  0.00     0.042 A 
ATOM      4  C   UNL     1      -2.302   0.540  -1.862  1.00  0.00     0.107 A 
ATOM      5  C   UNL     1      -2.050   2.014  -2.094  1.00  0.00     0.274 A 
ATOM      6  N   UNL     1      -0.952   2.567  -1.444  1.00  0.00    -0.316 N 
ATOM      7  O   UNL     1      -2.832   2.640  -2.813  1.00  0.00    -0.267 OA
ATOM      8  C   UNL     1      -0.686   3.990  -1.586  1.00  0.00     0.153 C 
ENDROOT
BRANCH   2   9
ATOM      9  C   UNL     1       0.842  -0.305   0.122  1.00  0.00    -0.006 A 
ATOM     10  C   UNL     1       3.112  -0.946   0.617  1.00  0.00     0.141 A 
ATOM     11  C   UNL     1       2.209  -0.319  -0.257  1.00  0.00     0.028 A 
ATOM     12  N   UNL     1       2.696  -1.704   1.668  1.00  0.00    -0.238 NA
ATOM     13  C   UNL     1       1.383  -1.733   1.955  1.00  0.00     0.114 A 
ATOM     14  C   UNL     1       0.434  -1.032   1.243  1.00  0.00     0.029 A 
BRANCH  10  15
ATOM     15  N   UNL     1       4.522  -0.816   0.489  1.00  0.00    -0.289 N 
ATOM     16  C   UNL     1       6.551   0.482   0.479  1.00  0.00     0.108 A 
ATOM     17  C   UNL     1       5.096   0.469   0.429  1.00  0.00     0.276 C 
ATOM     18  N   UNL     1       7.316  -0.672   0.451  1.00  0.00    -0.339 N 
ATOM     19  C   UNL     1       7.427   1.561   0.586  1.00  0.00     0.037 A 
ATOM     20  C   UNL     1       6.708  -1.980   0.341  1.00  0.00     0.144 C 
ATOM     21  C   UNL     1       8.615  -0.337   0.571  1.00  0.00     0.022 A 
ATOM     22  C   UNL     1       8.721   1.022   0.653  1.00  0.00    -0.026 A 
ATOM     23  C   UNL     1       5.329  -1.936   0.993  1.00  0.00     0.149 C 
ATOM     24  C   UNL     1       9.884  -1.080   0.651  1.00  0.00     0.061 C 
ATOM     25  C   UNL     1      10.122   1.464   0.803  1.00  0.00     0.044 C 
ATOM     26  C   UNL     1      10.943   0.109   0.631  1.00  0.00    -0.026 C 
ATOM     27  O   UNL     1       4.451   1.516   0.375  1.00  0.00    -0.267 OA
ATOM     28  C   UNL     1      11.948  -0.050   1.778  1.00  0.00     0.012 C 
ATOM     29  C   UNL     1      11.698   0.120  -0.707  1.00  0.00     0.012 C 
ENDBRANCH  10  15
BRANCH  11  30
ATOM     30  C   UNL     1       2.638   0.278  -1.581  1.00  0.00     0.196 C 
BRANCH  30  31
ATOM     31  O   UNL     1       3.667  -0.484  -2.206  1.00  0.00    -0.392 OA
ATOM     32  H   UNL     1       3.987   0.050  -2.952  1.00  0.00     0.211 HD
ENDBRANCH  30  31
ENDBRANCH  11  30
ENDBRANCH   2   9
BRANCH   4  33
ATOM     33  N   UNL     1      -3.465   0.010  -2.425  1.00  0.00    -0.336 N 
ATOM     34  H   UNL     1      -3.783   0.675  -3.142  1.00  0.00     0.168 HD
BRANCH  33  35
ATOM     35  C   UNL     1      -4.582  -0.169  -1.565  1.00  0.00     0.130 A 
ATOM     36  C   UNL     1      -5.370   0.929  -1.229  1.00  0.00     0.049 A 
ATOM     37  N   UNL     1      -4.815  -1.383  -1.036  1.00  0.00    -0.237 NA
ATOM     38  C   UNL     1      -6.455   0.765  -0.364  1.00  0.00     0.031 A 
ATOM     39  C   UNL     1      -5.883  -1.505  -0.199  1.00  0.00     0.139 A 
ATOM     40  C   UNL     1      -6.777  -0.489   0.165  1.00  0.00     0.055 A 
BRANCH  40  41
ATOM     41  N   UNL     1      -7.863  -0.702   1.019  1.00  0.00    -0.369 N 
ATOM     42  C   UNL     1      -8.641  -1.951   0.877  1.00  0.00     0.126 C 
ATOM     43  C   UNL     1      -8.682   0.433   1.485  1.00  0.00     0.126 C 
ATOM     44  C   UNL     1      -9.750  -1.749  -0.157  1.00  0.00     0.076 C 
ATOM     45  C   UNL     1      -9.782   0.726   0.465  1.00  0.00     0.076 C 
ATOM     46  C   UNL     1     -10.598  -0.545   0.251  1.00  0.00     0.256 C 
ATOM     47  C   UNL     1     -10.608  -3.006  -0.293  1.00  0.00     0.016 C 
ATOM     48  C   UNL     1     -10.664   1.885   0.932  1.00  0.00     0.016 C 
ATOM     49  F   UNL     1     -11.285  -0.838   1.390  1.00  0.00    -0.206 F 
ATOM     50  F   UNL     1     -11.534  -0.311  -0.711  1.00  0.00    -0.206 F 
ENDBRANCH  40  41
ENDBRANCH  33  35
ENDBRANCH   4  33
TORSDOF 7
