REMARK SMILES C[C@H]1CN(C2COC2)CCN1c1ccc(Nc2cc(-c3ccnc(N4CCn5c(cc6c5CC(C)(C)C6)C4=O)c3CO)cn(C)c2=O)nc1
REMARK SMILES IDX 17 1 18 2 46 3 19 4 44 5 47 6 43 7 45 8 16 9 15 11 12 12
REMARK SMILES IDX 49 13 13 14 48 15 14 16 11 17 3 18 4 19 2 20 9 21 10 22 1 23
REMARK SMILES IDX 5 24 8 25 6 26 7 27 20 28 21 29 40 30 22 31 24 32 23 33
REMARK SMILES IDX 41 34 42 35 25 37 26 38 38 39 27 40 29 41 28 42 30 43 32 44
REMARK SMILES IDX 31 45 33 46 37 47 34 48 39 49 35 50 36 51
REMARK H PARENT 16 10 42 36
ROOT
ATOM      1  C   UNL     1      -1.459  -2.799   0.215  1.00  0.00     0.107 A 
ATOM      2  C   UNL     1      -0.583  -1.841   0.537  1.00  0.00     0.042 A 
ATOM      3  C   UNL     1      -1.854  -2.924  -1.252  1.00  0.00     0.274 A 
ATOM      4  C   UNL     1      -0.086  -0.872  -0.422  1.00  0.00     0.001 A 
ATOM      5  N   UNL     1      -1.531  -1.832  -2.056  1.00  0.00    -0.316 N 
ATOM      6  O   UNL     1      -2.469  -3.910  -1.670  1.00  0.00    -0.267 OA
ATOM      7  C   UNL     1      -0.629  -0.864  -1.648  1.00  0.00     0.097 A 
ATOM      8  C   UNL     1      -1.963  -1.846  -3.447  1.00  0.00     0.153 C 
ENDROOT
BRANCH   1   9
ATOM      9  N   UNL     1      -2.123  -3.603   1.161  1.00  0.00    -0.336 N 
ATOM     10  H   UNL     1      -1.607  -3.628   2.036  1.00  0.00     0.168 HD
BRANCH   9  11
ATOM     11  C   UNL     1      -3.438  -3.138   1.455  1.00  0.00     0.130 A 
ATOM     12  C   UNL     1      -5.624  -1.493   1.144  1.00  0.00     0.056 A 
ATOM     13  C   UNL     1      -5.512  -2.744   0.539  1.00  0.00     0.139 A 
ATOM     14  C   UNL     1      -4.662  -1.179   2.106  1.00  0.00     0.031 A 
ATOM     15  N   UNL     1      -4.452  -3.561   0.671  1.00  0.00    -0.237 NA
ATOM     16  C   UNL     1      -3.565  -2.013   2.273  1.00  0.00     0.049 A 
BRANCH  12  17
ATOM     17  N   UNL     1      -6.500  -0.479   0.712  1.00  0.00    -0.365 N 
ATOM     18  C   UNL     1      -8.731   0.626   0.651  1.00  0.00     0.109 C 
ATOM     19  N   UNL     1      -8.516   0.874  -0.837  1.00  0.00    -0.292 NA
ATOM     20  C   UNL     1      -7.909  -0.616   1.136  1.00  0.00     0.093 C 
ATOM     21  C   UNL     1      -7.052   1.031  -1.169  1.00  0.00     0.106 C 
ATOM     22  C   UNL     1      -6.293  -0.221  -0.727  1.00  0.00     0.132 C 
ATOM     23  C   UNL     1      -7.997  -0.669   2.665  1.00  0.00     0.032 C 
BRANCH  19  24
ATOM     24  C   UNL     1      -9.204   2.125  -1.345  1.00  0.00     0.108 C 
ATOM     25  C   UNL     1     -10.736   2.090  -1.239  1.00  0.00     0.181 C 
ATOM     26  C   UNL     1      -9.353   3.330  -0.394  1.00  0.00     0.181 C 
ATOM     27  O   UNL     1     -10.660   2.831   0.023  1.00  0.00    -0.378 OA
ENDBRANCH  19  24
ENDBRANCH  12  17
ENDBRANCH   9  11
ENDBRANCH   1   9
BRANCH   4  28
ATOM     28  C   UNL     1       0.895   0.192  -0.114  1.00  0.00    -0.006 A 
ATOM     29  C   UNL     1       0.444   1.520  -0.165  1.00  0.00     0.029 A 
ATOM     30  C   UNL     1       2.255  -0.076   0.169  1.00  0.00     0.028 A 
ATOM     31  C   UNL     1       1.370   2.519   0.014  1.00  0.00     0.114 A 
ATOM     32  C   UNL     1       3.142   1.012   0.170  1.00  0.00     0.141 A 
ATOM     33  N   UNL     1       2.688   2.298   0.150  1.00  0.00    -0.238 NA
BRANCH  30  34
ATOM     34  C   UNL     1       2.690  -1.455   0.606  1.00  0.00     0.196 C 
BRANCH  34  35
ATOM     35  O   UNL     1       2.052  -1.727   1.864  1.00  0.00    -0.392 OA
ATOM     36  H   UNL     1       2.408  -2.578   2.187  1.00  0.00     0.211 HD
ENDBRANCH  34  35
ENDBRANCH  30  34
BRANCH  32  37
ATOM     37  N   UNL     1       4.561   0.889   0.123  1.00  0.00    -0.289 N 
ATOM     38  C   UNL     1       5.340   1.931   0.818  1.00  0.00     0.149 C 
ATOM     39  C   UNL     1       5.224  -0.131  -0.590  1.00  0.00     0.276 C 
ATOM     40  C   UNL     1       6.594   2.350   0.054  1.00  0.00     0.144 C 
ATOM     41  C   UNL     1       6.676  -0.039  -0.524  1.00  0.00     0.108 A 
ATOM     42  N   UNL     1       7.335   1.142  -0.236  1.00  0.00    -0.339 N 
ATOM     43  C   UNL     1       7.638  -1.016  -0.755  1.00  0.00     0.037 A 
ATOM     44  C   UNL     1       8.661   0.927  -0.298  1.00  0.00     0.022 A 
ATOM     45  C   UNL     1       8.878  -0.399  -0.591  1.00  0.00    -0.026 A 
ATOM     46  C   UNL     1       9.882   1.734  -0.173  1.00  0.00     0.061 C 
ATOM     47  C   UNL     1      10.322  -0.718  -0.651  1.00  0.00     0.044 C 
ATOM     48  C   UNL     1      10.985   0.598  -0.063  1.00  0.00    -0.026 C 
ATOM     49  O   UNL     1       4.666  -1.012  -1.248  1.00  0.00    -0.267 OA
ATOM     50  C   UNL     1      12.242   0.970  -0.855  1.00  0.00     0.012 C 
ATOM     51  C   UNL     1      11.335   0.374   1.416  1.00  0.00     0.012 C 
ENDBRANCH  32  37
ENDBRANCH   4  28
TORSDOF 8
