MODEL 1
REMARK VINA RESULT:   -13.023      0.000      0.000
REMARK INTER + INTRA:         -18.679
REMARK INTER:                 -18.733
REMARK INTRA:                   0.053
REMARK UNBOUND:                 0.053
REMARK SMILES C[C@H]1CN(C2COC2)CCN1c1ccc(Nc2cc(-c3ccnc(N4CCn5c(cc6c5CC(C)(C)C6)C4=O)c3CO)cn(C)c2=O)nc1
REMARK SMILES IDX 17 1 18 2 46 3 19 4 44 5 47 6 43 7 45 8 16 9 15 11 12 12
REMARK SMILES IDX 49 13 13 14 48 15 14 16 11 17 3 18 4 19 2 20 9 21 10 22 1 23
REMARK SMILES IDX 5 24 8 25 6 26 7 27 20 28 21 29 40 30 22 31 24 32 23 33
REMARK SMILES IDX 41 34 42 35 25 37 26 38 38 39 27 40 29 41 28 42 30 43 32 44
REMARK SMILES IDX 31 45 33 46 37 47 34 48 39 49 35 50 36 51
REMARK H PARENT 16 10 42 36
ROOT
ATOM      1  C   UNL     1      19.778   5.447   0.220  1.00  0.00     0.107 A 
ATOM      2  C   UNL     1      20.815   6.003   0.856  1.00  0.00     0.042 A 
ATOM      3  C   UNL     1      18.600   4.986   1.070  1.00  0.00     0.274 A 
ATOM      4  C   UNL     1      20.901   6.087   2.302  1.00  0.00     0.001 A 
ATOM      5  N   UNL     1      18.850   4.880   2.437  1.00  0.00    -0.316 N 
ATOM      6  O   UNL     1      17.520   4.677   0.557  1.00  0.00    -0.267 OA
ATOM      7  C   UNL     1      19.958   5.465   3.025  1.00  0.00     0.097 A 
ATOM      8  C   UNL     1      17.796   4.356   3.294  1.00  0.00     0.153 C 
ENDROOT
BRANCH   1   9
ATOM      9  N   UNL     1      19.771   5.152  -1.157  1.00  0.00    -0.336 N 
ATOM     10  H   UNL     1      19.266   5.866  -1.674  1.00  0.00     0.168 HD
BRANCH   9  11
ATOM     11  C   UNL     1      21.081   5.070  -1.711  1.00  0.00     0.130 A 
ATOM     12  C   UNL     1      23.127   5.835  -3.388  1.00  0.00     0.056 A 
ATOM     13  C   UNL     1      23.022   6.256  -2.063  1.00  0.00     0.139 A 
ATOM     14  C   UNL     1      22.256   4.820  -3.789  1.00  0.00     0.031 A 
ATOM     15  N   UNL     1      22.029   5.901  -1.229  1.00  0.00    -0.237 NA
ATOM     16  C   UNL     1      21.231   4.424  -2.941  1.00  0.00     0.049 A 
BRANCH  12  17
ATOM     17  N   UNL     1      23.894   6.491  -4.370  1.00  0.00    -0.365 N 
ATOM     18  C   UNL     1      26.054   7.337  -5.276  1.00  0.00     0.109 C 
ATOM     19  N   UNL     1      25.319   8.590  -5.733  1.00  0.00    -0.292 NA
ATOM     20  C   UNL     1      25.327   6.674  -4.057  1.00  0.00     0.093 C 
ATOM     21  C   UNL     1      23.874   8.300  -6.058  1.00  0.00     0.106 C 
ATOM     22  C   UNL     1      23.186   7.702  -4.830  1.00  0.00     0.132 C 
ATOM     23  C   UNL     1      25.988   5.315  -3.798  1.00  0.00     0.032 C 
BRANCH  19  24
ATOM     24  C   UNL     1      25.916   9.220  -6.975  1.00  0.00     0.108 C 
ATOM     25  C   UNL     1      25.643  10.726  -7.113  1.00  0.00     0.181 C 
ATOM     26  C   UNL     1      27.387   9.681  -6.941  1.00  0.00     0.181 C 
ATOM     27  O   UNL     1      26.954  11.011  -6.525  1.00  0.00    -0.378 OA
ENDBRANCH  19  24
ENDBRANCH  12  17
ENDBRANCH   9  11
ENDBRANCH   1   9
BRANCH   4  28
ATOM     28  C   UNL     1      22.019   6.708   3.046  1.00  0.00    -0.006 A 
ATOM     29  C   UNL     1      23.311   6.223   2.792  1.00  0.00     0.029 A 
ATOM     30  C   UNL     1      21.827   7.713   4.022  1.00  0.00     0.028 A 
ATOM     31  C   UNL     1      24.342   6.718   3.553  1.00  0.00     0.114 A 
ATOM     32  C   UNL     1      22.915   8.026   4.852  1.00  0.00     0.141 A 
ATOM     33  N   UNL     1      24.171   7.571   4.576  1.00  0.00    -0.238 NA
BRANCH  30  34
ATOM     34  C   UNL     1      20.549   8.518   4.054  1.00  0.00     0.196 C 
BRANCH  34  35
ATOM     35  O   UNL     1      19.711   7.952   5.074  1.00  0.00    -0.392 OA
ATOM     36  H   UNL     1      19.423   8.688   5.649  1.00  0.00     0.211 HD
ENDBRANCH  34  35
ENDBRANCH  30  34
BRANCH  32  37
ATOM     37  N   UNL     1      22.812   8.766   6.065  1.00  0.00    -0.289 N 
ATOM     38  C   UNL     1      22.820  10.237   5.946  1.00  0.00     0.149 C 
ATOM     39  C   UNL     1      22.760   8.161   7.337  1.00  0.00     0.276 C 
ATOM     40  C   UNL     1      23.622  10.921   7.050  1.00  0.00     0.144 C 
ATOM     41  C   UNL     1      22.690   9.115   8.435  1.00  0.00     0.108 A 
ATOM     42  N   UNL     1      23.114  10.425   8.311  1.00  0.00    -0.339 N 
ATOM     43  C   UNL     1      22.258   8.931   9.744  1.00  0.00     0.037 A 
ATOM     44  C   UNL     1      22.974  11.043   9.497  1.00  0.00     0.022 A 
ATOM     45  C   UNL     1      22.425  10.155  10.392  1.00  0.00    -0.026 A 
ATOM     46  C   UNL     1      23.285  12.364  10.058  1.00  0.00     0.061 C 
ATOM     47  C   UNL     1      22.217  10.774  11.721  1.00  0.00     0.044 C 
ATOM     48  C   UNL     1      22.477  12.310  11.424  1.00  0.00    -0.026 C 
ATOM     49  O   UNL     1      22.806   6.946   7.545  1.00  0.00    -0.267 OA
ATOM     50  C   UNL     1      23.274  12.953  12.563  1.00  0.00     0.012 C 
ATOM     51  C   UNL     1      21.131  13.029  11.245  1.00  0.00     0.012 C 
ENDBRANCH  32  37
ENDBRANCH   4  28
TORSDOF 8
ENDMDL
MODEL 2
REMARK VINA RESULT:   -12.673      1.789      2.524
REMARK INTER + INTRA:         -18.175
REMARK INTER:                 -18.361
REMARK INTRA:                   0.186
REMARK UNBOUND:                 0.053
REMARK SMILES C[C@H]1CN(C2COC2)CCN1c1ccc(Nc2cc(-c3ccnc(N4CCn5c(cc6c5CC(C)(C)C6)C4=O)c3CO)cn(C)c2=O)nc1
REMARK SMILES IDX 17 1 18 2 46 3 19 4 44 5 47 6 43 7 45 8 16 9 15 11 12 12
REMARK SMILES IDX 49 13 13 14 48 15 14 16 11 17 3 18 4 19 2 20 9 21 10 22 1 23
REMARK SMILES IDX 5 24 8 25 6 26 7 27 20 28 21 29 40 30 22 31 24 32 23 33
REMARK SMILES IDX 41 34 42 35 25 37 26 38 38 39 27 40 29 41 28 42 30 43 32 44
REMARK SMILES IDX 31 45 33 46 37 47 34 48 39 49 35 50 36 51
REMARK H PARENT 16 10 42 36
ROOT
ATOM      1  C   UNL     1      19.851   5.000   0.252  1.00  0.00     0.107 A 
ATOM      2  C   UNL     1      20.898   5.590   0.840  1.00  0.00     0.042 A 
ATOM      3  C   UNL     1      18.593   4.806   1.090  1.00  0.00     0.274 A 
ATOM      4  C   UNL     1      20.913   5.949   2.246  1.00  0.00     0.001 A 
ATOM      5  N   UNL     1      18.760   4.951   2.466  1.00  0.00    -0.316 N 
ATOM      6  O   UNL     1      17.519   4.486   0.571  1.00  0.00    -0.267 OA
ATOM      7  C   UNL     1      19.882   5.554   3.008  1.00  0.00     0.097 A 
ATOM      8  C   UNL     1      17.619   4.687   3.332  1.00  0.00     0.153 C 
ENDROOT
BRANCH   1   9
ATOM      9  N   UNL     1      19.891   4.443  -1.041  1.00  0.00    -0.336 N 
ATOM     10  H   UNL     1      18.980   4.505  -1.486  1.00  0.00     0.168 HD
BRANCH   9  11
ATOM     11  C   UNL     1      20.828   5.094  -1.895  1.00  0.00     0.130 A 
ATOM     12  C   UNL     1      23.030   5.212  -3.543  1.00  0.00     0.056 A 
ATOM     13  C   UNL     1      21.724   5.082  -4.014  1.00  0.00     0.139 A 
ATOM     14  C   UNL     1      23.176   5.500  -2.185  1.00  0.00     0.031 A 
ATOM     15  N   UNL     1      20.635   5.015  -3.228  1.00  0.00    -0.237 NA
ATOM     16  C   UNL     1      22.065   5.453  -1.354  1.00  0.00     0.049 A 
BRANCH  12  17
ATOM     17  N   UNL     1      24.178   4.882  -4.288  1.00  0.00    -0.365 N 
ATOM     18  C   UNL     1      25.783   5.273  -6.152  1.00  0.00     0.109 C 
ATOM     19  N   UNL     1      25.818   3.766  -6.376  1.00  0.00    -0.292 NA
ATOM     20  C   UNL     1      24.433   5.708  -5.486  1.00  0.00     0.093 C 
ATOM     21  C   UNL     1      25.579   3.007  -5.094  1.00  0.00     0.106 C 
ATOM     22  C   UNL     1      24.231   3.422  -4.502  1.00  0.00     0.132 C 
ATOM     23  C   UNL     1      24.559   7.184  -5.093  1.00  0.00     0.032 C 
BRANCH  19  24
ATOM     24  C   UNL     1      27.141   3.269  -6.923  1.00  0.00     0.108 C 
ATOM     25  C   UNL     1      28.256   4.326  -6.935  1.00  0.00     0.181 C 
ATOM     26  C   UNL     1      28.108   2.531  -5.975  1.00  0.00     0.181 C 
ATOM     27  O   UNL     1      28.761   3.799  -5.664  1.00  0.00    -0.378 OA
ENDBRANCH  19  24
ENDBRANCH  12  17
ENDBRANCH   9  11
ENDBRANCH   1   9
BRANCH   4  28
ATOM     28  C   UNL     1      22.040   6.616   2.933  1.00  0.00    -0.006 A 
ATOM     29  C   UNL     1      23.335   6.161   2.641  1.00  0.00     0.029 A 
ATOM     30  C   UNL     1      21.857   7.638   3.895  1.00  0.00     0.028 A 
ATOM     31  C   UNL     1      24.380   6.700   3.351  1.00  0.00     0.114 A 
ATOM     32  C   UNL     1      22.967   7.998   4.675  1.00  0.00     0.141 A 
ATOM     33  N   UNL     1      24.224   7.571   4.362  1.00  0.00    -0.238 NA
BRANCH  30  34
ATOM     34  C   UNL     1      20.559   8.408   3.957  1.00  0.00     0.196 C 
BRANCH  34  35
ATOM     35  O   UNL     1      19.851   7.960   5.124  1.00  0.00    -0.392 OA
ATOM     36  H   UNL     1      20.071   8.580   5.847  1.00  0.00     0.211 HD
ENDBRANCH  34  35
ENDBRANCH  30  34
BRANCH  32  37
ATOM     37  N   UNL     1      22.888   8.763   5.875  1.00  0.00    -0.289 N 
ATOM     38  C   UNL     1      22.982  10.228   5.734  1.00  0.00     0.149 C 
ATOM     39  C   UNL     1      22.783   8.181   7.156  1.00  0.00     0.276 C 
ATOM     40  C   UNL     1      23.805  10.884   6.840  1.00  0.00     0.144 C 
ATOM     41  C   UNL     1      22.751   9.156   8.237  1.00  0.00     0.108 A 
ATOM     42  N   UNL     1      23.252  10.438   8.100  1.00  0.00    -0.339 N 
ATOM     43  C   UNL     1      22.291   9.018   9.542  1.00  0.00     0.037 A 
ATOM     44  C   UNL     1      23.129  11.081   9.275  1.00  0.00     0.022 A 
ATOM     45  C   UNL     1      22.518  10.240  10.175  1.00  0.00    -0.026 A 
ATOM     46  C   UNL     1      23.507  12.392   9.820  1.00  0.00     0.061 C 
ATOM     47  C   UNL     1      22.325  10.891  11.490  1.00  0.00     0.044 C 
ATOM     48  C   UNL     1      22.678  12.405  11.174  1.00  0.00    -0.026 C 
ATOM     49  O   UNL     1      22.756   6.970   7.382  1.00  0.00    -0.267 OA
ATOM     50  C   UNL     1      23.493  13.020  12.315  1.00  0.00     0.012 C 
ATOM     51  C   UNL     1      21.378  13.197  10.963  1.00  0.00     0.012 C 
ENDBRANCH  32  37
ENDBRANCH   4  28
TORSDOF 8
ENDMDL
MODEL 3
REMARK VINA RESULT:   -11.777      4.284     11.582
REMARK INTER + INTRA:         -16.888
REMARK INTER:                 -15.275
REMARK INTRA:                  -1.613
REMARK UNBOUND:                 0.053
REMARK SMILES C[C@H]1CN(C2COC2)CCN1c1ccc(Nc2cc(-c3ccnc(N4CCn5c(cc6c5CC(C)(C)C6)C4=O)c3CO)cn(C)c2=O)nc1
REMARK SMILES IDX 17 1 18 2 46 3 19 4 44 5 47 6 43 7 45 8 16 9 15 11 12 12
REMARK SMILES IDX 49 13 13 14 48 15 14 16 11 17 3 18 4 19 2 20 9 21 10 22 1 23
REMARK SMILES IDX 5 24 8 25 6 26 7 27 20 28 21 29 40 30 22 31 24 32 23 33
REMARK SMILES IDX 41 34 42 35 25 37 26 38 38 39 27 40 29 41 28 42 30 43 32 44
REMARK SMILES IDX 31 45 33 46 37 47 34 48 39 49 35 50 36 51
REMARK H PARENT 16 10 42 36
ROOT
ATOM      1  C   UNL     1      23.051  13.020   9.529  1.00  0.00     0.107 A 
ATOM      2  C   UNL     1      23.150  11.940   8.745  1.00  0.00     0.042 A 
ATOM      3  C   UNL     1      22.524  12.813  10.944  1.00  0.00     0.274 A 
ATOM      4  C   UNL     1      22.686  10.626   9.150  1.00  0.00     0.001 A 
ATOM      5  N   UNL     1      21.887  11.595  11.176  1.00  0.00    -0.316 N 
ATOM      6  O   UNL     1      22.615  13.699  11.800  1.00  0.00    -0.267 OA
ATOM      7  C   UNL     1      22.016  10.524  10.308  1.00  0.00     0.097 A 
ATOM      8  C   UNL     1      21.278  11.370  12.480  1.00  0.00     0.153 C 
ENDROOT
BRANCH   1   9
ATOM      9  N   UNL     1      23.283  14.335   9.084  1.00  0.00    -0.336 N 
ATOM     10  H   UNL     1      22.958  15.009   9.771  1.00  0.00     0.168 HD
BRANCH   9  11
ATOM     11  C   UNL     1      24.663  14.601   8.845  1.00  0.00     0.130 A 
ATOM     12  C   UNL     1      27.303  13.913   8.469  1.00  0.00     0.056 A 
ATOM     13  C   UNL     1      26.417  14.161   7.421  1.00  0.00     0.139 A 
ATOM     14  C   UNL     1      26.856  14.237   9.751  1.00  0.00     0.031 A 
ATOM     15  N   UNL     1      25.123  14.492   7.581  1.00  0.00    -0.237 NA
ATOM     16  C   UNL     1      25.528  14.596   9.942  1.00  0.00     0.049 A 
BRANCH  12  17
ATOM     17  N   UNL     1      28.504  13.191   8.337  1.00  0.00    -0.365 N 
ATOM     18  C   UNL     1      30.863  12.960   7.572  1.00  0.00     0.109 C 
ATOM     19  N   UNL     1      30.544  11.525   7.171  1.00  0.00    -0.292 NA
ATOM     20  C   UNL     1      29.572  13.847   7.554  1.00  0.00     0.093 C 
ATOM     21  C   UNL     1      29.466  10.930   8.044  1.00  0.00     0.106 C 
ATOM     22  C   UNL     1      28.207  11.795   7.959  1.00  0.00     0.132 C 
ATOM     23  C   UNL     1      29.925  15.203   8.175  1.00  0.00     0.032 C 
BRANCH  19  24
ATOM     24  C   UNL     1      31.734  10.593   7.269  1.00  0.00     0.108 C 
ATOM     25  C   UNL     1      31.369   9.133   7.574  1.00  0.00     0.181 C 
ATOM     26  C   UNL     1      32.310   9.982   5.975  1.00  0.00     0.181 C 
ATOM     27  O   UNL     1      31.440   8.822   6.144  1.00  0.00    -0.378 OA
ENDBRANCH  19  24
ENDBRANCH  12  17
ENDBRANCH   9  11
ENDBRANCH   1   9
BRANCH   4  28
ATOM     28  C   UNL     1      22.790   9.404   8.324  1.00  0.00    -0.006 A 
ATOM     29  C   UNL     1      23.129   8.209   8.978  1.00  0.00     0.029 A 
ATOM     30  C   UNL     1      22.619   9.409   6.919  1.00  0.00     0.028 A 
ATOM     31  C   UNL     1      23.333   7.091   8.206  1.00  0.00     0.114 A 
ATOM     32  C   UNL     1      23.012   8.260   6.215  1.00  0.00     0.141 A 
ATOM     33  N   UNL     1      23.310   7.098   6.863  1.00  0.00    -0.238 NA
BRANCH  30  34
ATOM     34  C   UNL     1      21.896  10.548   6.239  1.00  0.00     0.196 C 
BRANCH  34  35
ATOM     35  O   UNL     1      22.894  11.408   5.667  1.00  0.00    -0.392 OA
ATOM     36  H   UNL     1      22.756  11.403   4.699  1.00  0.00     0.211 HD
ENDBRANCH  34  35
ENDBRANCH  30  34
BRANCH  32  37
ATOM     37  N   UNL     1      23.203   8.211   4.804  1.00  0.00    -0.289 N 
ATOM     38  C   UNL     1      24.473   8.754   4.287  1.00  0.00     0.149 C 
ATOM     39  C   UNL     1      22.225   7.729   3.910  1.00  0.00     0.276 C 
ATOM     40  C   UNL     1      24.304   9.538   2.987  1.00  0.00     0.144 C 
ATOM     41  C   UNL     1      22.625   7.805   2.511  1.00  0.00     0.108 A 
ATOM     42  N   UNL     1      23.601   8.676   2.063  1.00  0.00    -0.339 N 
ATOM     43  C   UNL     1      22.134   7.114   1.409  1.00  0.00     0.037 A 
ATOM     44  C   UNL     1      23.713   8.554   0.728  1.00  0.00     0.022 A 
ATOM     45  C   UNL     1      22.840   7.581   0.301  1.00  0.00    -0.026 A 
ATOM     46  C   UNL     1      24.478   9.204  -0.344  1.00  0.00     0.061 C 
ATOM     47  C   UNL     1      22.925   7.373  -1.162  1.00  0.00     0.044 C 
ATOM     48  C   UNL     1      24.221   8.202  -1.549  1.00  0.00    -0.026 C 
ATOM     49  O   UNL     1      21.112   7.309   4.237  1.00  0.00    -0.267 OA
ATOM     50  C   UNL     1      24.005   8.961  -2.862  1.00  0.00     0.012 C 
ATOM     51  C   UNL     1      25.417   7.246  -1.676  1.00  0.00     0.012 C 
ENDBRANCH  32  37
ENDBRANCH   4  28
TORSDOF 8
ENDMDL
MODEL 4
REMARK VINA RESULT:   -11.556      2.186      2.577
REMARK INTER + INTRA:         -16.570
REMARK INTER:                 -16.335
REMARK INTRA:                  -0.234
REMARK UNBOUND:                 0.053
REMARK SMILES C[C@H]1CN(C2COC2)CCN1c1ccc(Nc2cc(-c3ccnc(N4CCn5c(cc6c5CC(C)(C)C6)C4=O)c3CO)cn(C)c2=O)nc1
REMARK SMILES IDX 17 1 18 2 46 3 19 4 44 5 47 6 43 7 45 8 16 9 15 11 12 12
REMARK SMILES IDX 49 13 13 14 48 15 14 16 11 17 3 18 4 19 2 20 9 21 10 22 1 23
REMARK SMILES IDX 5 24 8 25 6 26 7 27 20 28 21 29 40 30 22 31 24 32 23 33
REMARK SMILES IDX 41 34 42 35 25 37 26 38 38 39 27 40 29 41 28 42 30 43 32 44
REMARK SMILES IDX 31 45 33 46 37 47 34 48 39 49 35 50 36 51
REMARK H PARENT 16 10 42 36
ROOT
ATOM      1  C   UNL     1      20.584   5.213   0.114  1.00  0.00     0.107 A 
ATOM      2  C   UNL     1      21.554   5.763   0.853  1.00  0.00     0.042 A 
ATOM      3  C   UNL     1      19.240   4.969   0.790  1.00  0.00     0.274 A 
ATOM      4  C   UNL     1      21.407   6.034   2.271  1.00  0.00     0.001 A 
ATOM      5  N   UNL     1      19.248   5.029   2.183  1.00  0.00    -0.316 N 
ATOM      6  O   UNL     1      18.233   4.683   0.134  1.00  0.00    -0.267 OA
ATOM      7  C   UNL     1      20.299   5.595   2.885  1.00  0.00     0.097 A 
ATOM      8  C   UNL     1      18.018   4.713   2.895  1.00  0.00     0.153 C 
ENDROOT
BRANCH   1   9
ATOM      9  N   UNL     1      20.774   4.737  -1.197  1.00  0.00    -0.336 N 
ATOM     10  H   UNL     1      19.900   4.755  -1.716  1.00  0.00     0.168 HD
BRANCH   9  11
ATOM     11  C   UNL     1      21.721   5.507  -1.933  1.00  0.00     0.130 A 
ATOM     12  C   UNL     1      24.105   6.837  -2.293  1.00  0.00     0.056 A 
ATOM     13  C   UNL     1      23.885   5.527  -2.715  1.00  0.00     0.139 A 
ATOM     14  C   UNL     1      22.984   7.547  -1.858  1.00  0.00     0.031 A 
ATOM     15  N   UNL     1      22.733   4.855  -2.544  1.00  0.00    -0.237 NA
ATOM     16  C   UNL     1      21.778   6.881  -1.687  1.00  0.00     0.049 A 
BRANCH  12  17
ATOM     17  N   UNL     1      25.379   7.403  -2.094  1.00  0.00    -0.365 N 
ATOM     18  C   UNL     1      26.928   9.007  -0.984  1.00  0.00     0.109 C 
ATOM     19  N   UNL     1      27.596   9.225  -2.336  1.00  0.00    -0.292 NA
ATOM     20  C   UNL     1      25.441   8.549  -1.163  1.00  0.00     0.093 C 
ATOM     21  C   UNL     1      27.510   7.994  -3.205  1.00  0.00     0.106 C 
ATOM     22  C   UNL     1      26.042   7.609  -3.397  1.00  0.00     0.132 C 
ATOM     23  C   UNL     1      24.907   8.139   0.214  1.00  0.00     0.032 C 
BRANCH  19  24
ATOM     24  C   UNL     1      29.068   9.569  -2.232  1.00  0.00     0.108 C 
ATOM     25  C   UNL     1      29.654   9.414  -0.820  1.00  0.00     0.181 C 
ATOM     26  C   UNL     1      30.112   8.488  -2.580  1.00  0.00     0.181 C 
ATOM     27  O   UNL     1      30.150   8.083  -1.178  1.00  0.00    -0.378 OA
ENDBRANCH  19  24
ENDBRANCH  12  17
ENDBRANCH   9  11
ENDBRANCH   1   9
BRANCH   4  28
ATOM     28  C   UNL     1      22.445   6.657   3.122  1.00  0.00    -0.006 A 
ATOM     29  C   UNL     1      23.758   6.179   2.991  1.00  0.00     0.029 A 
ATOM     30  C   UNL     1      22.155   7.655   4.081  1.00  0.00     0.028 A 
ATOM     31  C   UNL     1      24.709   6.674   3.850  1.00  0.00     0.114 A 
ATOM     32  C   UNL     1      23.157   7.968   5.013  1.00  0.00     0.141 A 
ATOM     33  N   UNL     1      24.436   7.521   4.857  1.00  0.00    -0.238 NA
BRANCH  30  34
ATOM     34  C   UNL     1      20.875   8.453   3.994  1.00  0.00     0.196 C 
BRANCH  34  35
ATOM     35  O   UNL     1      21.141   9.600   3.171  1.00  0.00    -0.392 OA
ATOM     36  H   UNL     1      20.939   9.344   2.250  1.00  0.00     0.211 HD
ENDBRANCH  34  35
ENDBRANCH  30  34
BRANCH  32  37
ATOM     37  N   UNL     1      22.934   8.701   6.215  1.00  0.00    -0.289 N 
ATOM     38  C   UNL     1      22.874  10.170   6.093  1.00  0.00     0.149 C 
ATOM     39  C   UNL     1      22.828   8.092   7.482  1.00  0.00     0.276 C 
ATOM     40  C   UNL     1      23.563  10.894   7.248  1.00  0.00     0.144 C 
ATOM     41  C   UNL     1      22.633   9.040   8.570  1.00  0.00     0.108 A 
ATOM     42  N   UNL     1      22.997  10.371   8.472  1.00  0.00    -0.339 N 
ATOM     43  C   UNL     1      22.125   8.833   9.847  1.00  0.00     0.037 A 
ATOM     44  C   UNL     1      22.745  10.979   9.645  1.00  0.00     0.022 A 
ATOM     45  C   UNL     1      22.184  10.062  10.503  1.00  0.00    -0.026 A 
ATOM     46  C   UNL     1      22.948  12.314  10.222  1.00  0.00     0.061 C 
ATOM     47  C   UNL     1      21.854  10.668  11.813  1.00  0.00     0.044 C 
ATOM     48  C   UNL     1      22.055  12.216  11.530  1.00  0.00    -0.026 C 
ATOM     49  O   UNL     1      22.922   6.881   7.695  1.00  0.00    -0.267 OA
ATOM     50  C   UNL     1      22.739  12.898  12.719  1.00  0.00     0.012 C 
ATOM     51  C   UNL     1      20.688  12.865  11.259  1.00  0.00     0.012 C 
ENDBRANCH  32  37
ENDBRANCH   4  28
TORSDOF 8
ENDMDL
MODEL 5
REMARK VINA RESULT:   -10.944      4.355      9.008
REMARK INTER + INTRA:         -15.688
REMARK INTER:                 -13.789
REMARK INTRA:                  -1.899
REMARK UNBOUND:                 0.053
REMARK SMILES C[C@H]1CN(C2COC2)CCN1c1ccc(Nc2cc(-c3ccnc(N4CCn5c(cc6c5CC(C)(C)C6)C4=O)c3CO)cn(C)c2=O)nc1
REMARK SMILES IDX 17 1 18 2 46 3 19 4 44 5 47 6 43 7 45 8 16 9 15 11 12 12
REMARK SMILES IDX 49 13 13 14 48 15 14 16 11 17 3 18 4 19 2 20 9 21 10 22 1 23
REMARK SMILES IDX 5 24 8 25 6 26 7 27 20 28 21 29 40 30 22 31 24 32 23 33
REMARK SMILES IDX 41 34 42 35 25 37 26 38 38 39 27 40 29 41 28 42 30 43 32 44
REMARK SMILES IDX 31 45 33 46 37 47 34 48 39 49 35 50 36 51
REMARK H PARENT 16 10 42 36
ROOT
ATOM      1  C   UNL     1      26.196  10.908   0.213  1.00  0.00     0.107 A 
ATOM      2  C   UNL     1      25.242  10.584   1.092  1.00  0.00     0.042 A 
ATOM      3  C   UNL     1      26.961   9.765  -0.445  1.00  0.00     0.274 A 
ATOM      4  C   UNL     1      24.985   9.218   1.509  1.00  0.00     0.001 A 
ATOM      5  N   UNL     1      26.829   8.521   0.170  1.00  0.00    -0.316 N 
ATOM      6  O   UNL     1      27.690   9.959  -1.423  1.00  0.00    -0.267 OA
ATOM      7  C   UNL     1      25.826   8.262   1.090  1.00  0.00     0.097 A 
ATOM      8  C   UNL     1      27.607   7.406  -0.351  1.00  0.00     0.153 C 
ENDROOT
BRANCH   1   9
ATOM      9  N   UNL     1      26.613  12.229  -0.038  1.00  0.00    -0.336 N 
ATOM     10  H   UNL     1      25.814  12.830  -0.214  1.00  0.00     0.168 HD
BRANCH   9  11
ATOM     11  C   UNL     1      27.341  12.795   1.049  1.00  0.00     0.130 A 
ATOM     12  C   UNL     1      27.651  13.712   3.627  1.00  0.00     0.056 A 
ATOM     13  C   UNL     1      28.011  12.428   3.220  1.00  0.00     0.139 A 
ATOM     14  C   UNL     1      27.313  14.613   2.616  1.00  0.00     0.031 A 
ATOM     15  N   UNL     1      27.863  11.957   1.969  1.00  0.00    -0.237 NA
ATOM     16  C   UNL     1      27.167  14.155   1.313  1.00  0.00     0.049 A 
BRANCH  12  17
ATOM     17  N   UNL     1      27.418  14.083   4.965  1.00  0.00    -0.365 N 
ATOM     18  C   UNL     1      28.159  14.414   7.320  1.00  0.00     0.109 C 
ATOM     19  N   UNL     1      26.819  13.847   7.772  1.00  0.00    -0.292 NA
ATOM     20  C   UNL     1      28.544  13.876   5.900  1.00  0.00     0.093 C 
ATOM     21  C   UNL     1      25.727  14.134   6.770  1.00  0.00     0.106 C 
ATOM     22  C   UNL     1      26.116  13.550   5.412  1.00  0.00     0.132 C 
ATOM     23  C   UNL     1      29.776  14.651   5.423  1.00  0.00     0.032 C 
BRANCH  19  24
ATOM     24  C   UNL     1      26.341  14.411   9.095  1.00  0.00     0.108 C 
ATOM     25  C   UNL     1      27.010  15.735   9.495  1.00  0.00     0.181 C 
ATOM     26  C   UNL     1      25.060  15.269   9.119  1.00  0.00     0.181 C 
ATOM     27  O   UNL     1      25.869  16.471   8.946  1.00  0.00    -0.378 OA
ENDBRANCH  19  24
ENDBRANCH  12  17
ENDBRANCH   9  11
ENDBRANCH   1   9
BRANCH   4  28
ATOM     28  C   UNL     1      23.929   8.813   2.464  1.00  0.00    -0.006 A 
ATOM     29  C   UNL     1      22.800   8.165   1.941  1.00  0.00     0.029 A 
ATOM     30  C   UNL     1      23.994   9.101   3.848  1.00  0.00     0.028 A 
ATOM     31  C   UNL     1      21.768   7.880   2.802  1.00  0.00     0.114 A 
ATOM     32  C   UNL     1      22.824   8.919   4.602  1.00  0.00     0.141 A 
ATOM     33  N   UNL     1      21.745   8.261   4.090  1.00  0.00    -0.238 NA
BRANCH  30  34
ATOM     34  C   UNL     1      25.315   9.435   4.501  1.00  0.00     0.196 C 
BRANCH  34  35
ATOM     35  O   UNL     1      25.419  10.867   4.548  1.00  0.00    -0.392 OA
ATOM     36  H   UNL     1      26.248  11.078   5.020  1.00  0.00     0.211 HD
ENDBRANCH  34  35
ENDBRANCH  30  34
BRANCH  32  37
ATOM     37  N   UNL     1      22.624   9.447   5.910  1.00  0.00    -0.289 N 
ATOM     38  C   UNL     1      22.385  10.899   6.010  1.00  0.00     0.149 C 
ATOM     39  C   UNL     1      22.700   8.662   7.079  1.00  0.00     0.276 C 
ATOM     40  C   UNL     1      23.085  11.540   7.206  1.00  0.00     0.144 C 
ATOM     41  C   UNL     1      22.494   9.420   8.305  1.00  0.00     0.108 A 
ATOM     42  N   UNL     1      22.693  10.787   8.378  1.00  0.00    -0.339 N 
ATOM     43  C   UNL     1      22.127   8.977   9.571  1.00  0.00     0.037 A 
ATOM     44  C   UNL     1      22.476  11.191   9.642  1.00  0.00     0.022 A 
ATOM     45  C   UNL     1      22.101  10.103  10.394  1.00  0.00    -0.026 A 
ATOM     46  C   UNL     1      22.574  12.450  10.393  1.00  0.00     0.061 C 
ATOM     47  C   UNL     1      21.820  10.477  11.798  1.00  0.00     0.044 C 
ATOM     48  C   UNL     1      21.816  12.062  11.732  1.00  0.00    -0.026 C 
ATOM     49  O   UNL     1      22.951   7.455   7.105  1.00  0.00    -0.267 OA
ATOM     50  C   UNL     1      22.518  12.656  12.957  1.00  0.00     0.012 C 
ATOM     51  C   UNL     1      20.366  12.564  11.655  1.00  0.00     0.012 C 
ENDBRANCH  32  37
ENDBRANCH   4  28
TORSDOF 8
ENDMDL
MODEL 6
REMARK VINA RESULT:   -10.840      4.333      8.140
REMARK INTER + INTRA:         -15.540
REMARK INTER:                 -14.106
REMARK INTRA:                  -1.433
REMARK UNBOUND:                 0.053
REMARK SMILES C[C@H]1CN(C2COC2)CCN1c1ccc(Nc2cc(-c3ccnc(N4CCn5c(cc6c5CC(C)(C)C6)C4=O)c3CO)cn(C)c2=O)nc1
REMARK SMILES IDX 17 1 18 2 46 3 19 4 44 5 47 6 43 7 45 8 16 9 15 11 12 12
REMARK SMILES IDX 49 13 13 14 48 15 14 16 11 17 3 18 4 19 2 20 9 21 10 22 1 23
REMARK SMILES IDX 5 24 8 25 6 26 7 27 20 28 21 29 40 30 22 31 24 32 23 33
REMARK SMILES IDX 41 34 42 35 25 37 26 38 38 39 27 40 29 41 28 42 30 43 32 44
REMARK SMILES IDX 31 45 33 46 37 47 34 48 39 49 35 50 36 51
REMARK H PARENT 16 10 42 36
ROOT
ATOM      1  C   UNL     1      27.841  11.097   0.468  1.00  0.00     0.107 A 
ATOM      2  C   UNL     1      27.844  11.459   1.755  1.00  0.00     0.042 A 
ATOM      3  C   UNL     1      28.406  12.089  -0.541  1.00  0.00     0.274 A 
ATOM      4  C   UNL     1      28.261  12.774   2.204  1.00  0.00     0.001 A 
ATOM      5  N   UNL     1      28.561  13.395  -0.078  1.00  0.00    -0.316 N 
ATOM      6  O   UNL     1      28.652  11.754  -1.704  1.00  0.00    -0.267 OA
ATOM      7  C   UNL     1      28.532  13.700   1.273  1.00  0.00     0.097 A 
ATOM      8  C   UNL     1      29.009  14.414  -1.017  1.00  0.00     0.153 C 
ENDROOT
BRANCH   1   9
ATOM      9  N   UNL     1      27.236   9.920  -0.013  1.00  0.00    -0.336 N 
ATOM     10  H   UNL     1      27.923   9.178  -0.112  1.00  0.00     0.168 HD
BRANCH   9  11
ATOM     11  C   UNL     1      26.208   9.436   0.847  1.00  0.00     0.130 A 
ATOM     12  C   UNL     1      24.057   7.849   1.507  1.00  0.00     0.056 A 
ATOM     13  C   UNL     1      25.372   7.542   1.853  1.00  0.00     0.139 A 
ATOM     14  C   UNL     1      23.832   9.124   0.984  1.00  0.00     0.031 A 
ATOM     15  N   UNL     1      26.438   8.298   1.536  1.00  0.00    -0.237 NA
ATOM     16  C   UNL     1      24.915   9.930   0.661  1.00  0.00     0.049 A 
BRANCH  12  17
ATOM     17  N   UNL     1      23.009   6.910   1.466  1.00  0.00    -0.365 N 
ATOM     18  C   UNL     1      21.018   5.877   0.382  1.00  0.00     0.109 C 
ATOM     19  N   UNL     1      20.375   5.782   1.760  1.00  0.00    -0.292 NA
ATOM     20  C   UNL     1      22.068   7.038   0.333  1.00  0.00     0.093 C 
ATOM     21  C   UNL     1      21.410   5.622   2.848  1.00  0.00     0.106 C 
ATOM     22  C   UNL     1      22.384   6.800   2.799  1.00  0.00     0.132 C 
ATOM     23  C   UNL     1      22.824   6.932  -0.995  1.00  0.00     0.032 C 
BRANCH  19  24
ATOM     24  C   UNL     1      19.425   4.610   1.902  1.00  0.00     0.108 C 
ATOM     25  C   UNL     1      18.037   4.985   2.445  1.00  0.00     0.181 C 
ATOM     26  C   UNL     1      18.614   4.157   0.671  1.00  0.00     0.181 C 
ATOM     27  O   UNL     1      17.522   5.038   1.074  1.00  0.00    -0.378 OA
ENDBRANCH  19  24
ENDBRANCH  12  17
ENDBRANCH   9  11
ENDBRANCH   1   9
BRANCH   4  28
ATOM     28  C   UNL     1      28.297  13.211   3.617  1.00  0.00    -0.006 A 
ATOM     29  C   UNL     1      29.554  13.494   4.173  1.00  0.00     0.029 A 
ATOM     30  C   UNL     1      27.138  13.296   4.424  1.00  0.00     0.028 A 
ATOM     31  C   UNL     1      29.609  13.797   5.512  1.00  0.00     0.114 A 
ATOM     32  C   UNL     1      27.323  13.449   5.807  1.00  0.00     0.141 A 
ATOM     33  N   UNL     1      28.545  13.754   6.331  1.00  0.00    -0.238 NA
BRANCH  30  34
ATOM     34  C   UNL     1      25.768  13.377   3.792  1.00  0.00     0.196 C 
BRANCH  34  35
ATOM     35  O   UNL     1      25.233  12.045   3.757  1.00  0.00    -0.392 OA
ATOM     36  H   UNL     1      25.952  11.440   4.026  1.00  0.00     0.211 HD
ENDBRANCH  34  35
ENDBRANCH  30  34
BRANCH  32  37
ATOM     37  N   UNL     1      26.303  13.239   6.780  1.00  0.00    -0.289 N 
ATOM     38  C   UNL     1      25.938  14.397   7.617  1.00  0.00     0.149 C 
ATOM     39  C   UNL     1      25.690  11.988   6.999  1.00  0.00     0.276 C 
ATOM     40  C   UNL     1      25.675  14.023   9.074  1.00  0.00     0.144 C 
ATOM     41  C   UNL     1      24.699  12.003   8.065  1.00  0.00     0.108 A 
ATOM     42  N   UNL     1      24.696  12.958   9.066  1.00  0.00    -0.339 N 
ATOM     43  C   UNL     1      23.654  11.121   8.318  1.00  0.00     0.037 A 
ATOM     44  C   UNL     1      23.701  12.682   9.928  1.00  0.00     0.022 A 
ATOM     45  C   UNL     1      23.026  11.571   9.479  1.00  0.00    -0.026 A 
ATOM     46  C   UNL     1      23.202  13.230  11.196  1.00  0.00     0.061 C 
ATOM     47  C   UNL     1      21.896  11.220  10.367  1.00  0.00     0.044 C 
ATOM     48  C   UNL     1      21.805  12.487  11.318  1.00  0.00    -0.026 C 
ATOM     49  O   UNL     1      25.965  10.950   6.393  1.00  0.00    -0.267 OA
ATOM     50  C   UNL     1      21.530  12.061  12.763  1.00  0.00     0.012 C 
ATOM     51  C   UNL     1      20.691  13.420  10.818  1.00  0.00     0.012 C 
ENDBRANCH  32  37
ENDBRANCH   4  28
TORSDOF 8
ENDMDL
MODEL 7
REMARK VINA RESULT:   -10.833      3.893     10.079
REMARK INTER + INTRA:         -15.529
REMARK INTER:                 -13.533
REMARK INTRA:                  -1.996
REMARK UNBOUND:                 0.053
REMARK SMILES C[C@H]1CN(C2COC2)CCN1c1ccc(Nc2cc(-c3ccnc(N4CCn5c(cc6c5CC(C)(C)C6)C4=O)c3CO)cn(C)c2=O)nc1
REMARK SMILES IDX 17 1 18 2 46 3 19 4 44 5 47 6 43 7 45 8 16 9 15 11 12 12
REMARK SMILES IDX 49 13 13 14 48 15 14 16 11 17 3 18 4 19 2 20 9 21 10 22 1 23
REMARK SMILES IDX 5 24 8 25 6 26 7 27 20 28 21 29 40 30 22 31 24 32 23 33
REMARK SMILES IDX 41 34 42 35 25 37 26 38 38 39 27 40 29 41 28 42 30 43 32 44
REMARK SMILES IDX 31 45 33 46 37 47 34 48 39 49 35 50 36 51
REMARK H PARENT 16 10 42 36
ROOT
ATOM      1  C   UNL     1      24.430  12.822   9.182  1.00  0.00     0.107 A 
ATOM      2  C   UNL     1      24.350  11.721   8.426  1.00  0.00     0.042 A 
ATOM      3  C   UNL     1      23.201  13.203   9.999  1.00  0.00     0.274 A 
ATOM      4  C   UNL     1      23.127  10.953   8.279  1.00  0.00     0.001 A 
ATOM      5  N   UNL     1      22.015  12.571   9.630  1.00  0.00    -0.316 N 
ATOM      6  O   UNL     1      23.261  14.059  10.887  1.00  0.00    -0.267 OA
ATOM      7  C   UNL     1      22.005  11.445   8.825  1.00  0.00     0.097 A 
ATOM      8  C   UNL     1      20.785  12.959  10.308  1.00  0.00     0.153 C 
ENDROOT
BRANCH   1   9
ATOM      9  N   UNL     1      25.527  13.704   9.165  1.00  0.00    -0.336 N 
ATOM     10  H   UNL     1      26.343  13.270   9.588  1.00  0.00     0.168 HD
BRANCH   9  11
ATOM     11  C   UNL     1      25.893  14.105   7.847  1.00  0.00     0.130 A 
ATOM     12  C   UNL     1      26.916  13.717   5.321  1.00  0.00     0.056 A 
ATOM     13  C   UNL     1      25.554  13.664   5.614  1.00  0.00     0.139 A 
ATOM     14  C   UNL     1      27.753  14.192   6.332  1.00  0.00     0.031 A 
ATOM     15  N   UNL     1      25.033  13.843   6.841  1.00  0.00    -0.237 NA
ATOM     16  C   UNL     1      27.237  14.400   7.604  1.00  0.00     0.049 A 
BRANCH  12  17
ATOM     17  N   UNL     1      27.503  13.147   4.174  1.00  0.00    -0.365 N 
ATOM     18  C   UNL     1      27.760  12.933   1.707  1.00  0.00     0.109 C 
ATOM     19  N   UNL     1      27.867  11.425   1.895  1.00  0.00    -0.292 NA
ATOM     20  C   UNL     1      26.950  13.587   2.877  1.00  0.00     0.093 C 
ATOM     21  C   UNL     1      28.469  11.073   3.233  1.00  0.00     0.106 C 
ATOM     22  C   UNL     1      27.623  11.686   4.349  1.00  0.00     0.132 C 
ATOM     23  C   UNL     1      27.073  15.109   2.740  1.00  0.00     0.032 C 
BRANCH  19  24
ATOM     24  C   UNL     1      28.728  10.747   0.849  1.00  0.00     0.108 C 
ATOM     25  C   UNL     1      27.999   9.668   0.034  1.00  0.00     0.181 C 
ATOM     26  C   UNL     1      28.887  11.416  -0.532  1.00  0.00     0.181 C 
ATOM     27  O   UNL     1      27.750  10.646  -1.029  1.00  0.00    -0.378 OA
ENDBRANCH  19  24
ENDBRANCH  12  17
ENDBRANCH   9  11
ENDBRANCH   1   9
BRANCH   4  28
ATOM     28  C   UNL     1      22.997   9.722   7.469  1.00  0.00    -0.006 A 
ATOM     29  C   UNL     1      23.068   8.494   8.145  1.00  0.00     0.029 A 
ATOM     30  C   UNL     1      22.863   9.740   6.061  1.00  0.00     0.028 A 
ATOM     31  C   UNL     1      23.056   7.345   7.391  1.00  0.00     0.114 A 
ATOM     32  C   UNL     1      23.028   8.523   5.380  1.00  0.00     0.141 A 
ATOM     33  N   UNL     1      23.065   7.335   6.048  1.00  0.00    -0.238 NA
BRANCH  30  34
ATOM     34  C   UNL     1      22.405  10.992   5.350  1.00  0.00     0.196 C 
BRANCH  34  35
ATOM     35  O   UNL     1      20.979  11.072   5.501  1.00  0.00    -0.392 OA
ATOM     36  H   UNL     1      20.607  11.248   4.615  1.00  0.00     0.211 HD
ENDBRANCH  34  35
ENDBRANCH  30  34
BRANCH  32  37
ATOM     37  N   UNL     1      23.236   8.414   3.974  1.00  0.00    -0.289 N 
ATOM     38  C   UNL     1      24.533   8.888   3.457  1.00  0.00     0.149 C 
ATOM     39  C   UNL     1      22.253   7.935   3.084  1.00  0.00     0.276 C 
ATOM     40  C   UNL     1      24.412   9.628   2.127  1.00  0.00     0.144 C 
ATOM     41  C   UNL     1      22.676   7.943   1.690  1.00  0.00     0.108 A 
ATOM     42  N   UNL     1      23.690   8.759   1.224  1.00  0.00    -0.339 N 
ATOM     43  C   UNL     1      22.174   7.229   0.607  1.00  0.00     0.037 A 
ATOM     44  C   UNL     1      23.816   8.583  -0.103  1.00  0.00     0.022 A 
ATOM     45  C   UNL     1      22.913   7.628  -0.507  1.00  0.00    -0.026 A 
ATOM     46  C   UNL     1      24.620   9.162  -1.187  1.00  0.00     0.061 C 
ATOM     47  C   UNL     1      23.010   7.361  -1.960  1.00  0.00     0.044 C 
ATOM     48  C   UNL     1      24.342   8.126  -2.357  1.00  0.00    -0.026 C 
ATOM     49  O   UNL     1      21.121   7.570   3.409  1.00  0.00    -0.267 OA
ATOM     50  C   UNL     1      24.174   8.842  -3.700  1.00  0.00     0.012 C 
ATOM     51  C   UNL     1      25.503   7.122  -2.430  1.00  0.00     0.012 C 
ENDBRANCH  32  37
ENDBRANCH   4  28
TORSDOF 8
ENDMDL
MODEL 8
REMARK VINA RESULT:   -10.683      2.539     11.278
REMARK INTER + INTRA:         -15.314
REMARK INTER:                 -14.273
REMARK INTRA:                  -1.041
REMARK UNBOUND:                 0.053
REMARK SMILES C[C@H]1CN(C2COC2)CCN1c1ccc(Nc2cc(-c3ccnc(N4CCn5c(cc6c5CC(C)(C)C6)C4=O)c3CO)cn(C)c2=O)nc1
REMARK SMILES IDX 17 1 18 2 46 3 19 4 44 5 47 6 43 7 45 8 16 9 15 11 12 12
REMARK SMILES IDX 49 13 13 14 48 15 14 16 11 17 3 18 4 19 2 20 9 21 10 22 1 23
REMARK SMILES IDX 5 24 8 25 6 26 7 27 20 28 21 29 40 30 22 31 24 32 23 33
REMARK SMILES IDX 41 34 42 35 25 37 26 38 38 39 27 40 29 41 28 42 30 43 32 44
REMARK SMILES IDX 31 45 33 46 37 47 34 48 39 49 35 50 36 51
REMARK H PARENT 16 10 42 36
ROOT
ATOM      1  C   UNL     1      21.001   5.451   2.515  1.00  0.00     0.107 A 
ATOM      2  C   UNL     1      21.471   5.516   1.264  1.00  0.00     0.042 A 
ATOM      3  C   UNL     1      19.550   5.020   2.697  1.00  0.00     0.274 A 
ATOM      4  C   UNL     1      20.638   5.297   0.096  1.00  0.00     0.001 A 
ATOM      5  N   UNL     1      18.763   5.060   1.548  1.00  0.00    -0.316 N 
ATOM      6  O   UNL     1      19.106   4.713   3.808  1.00  0.00    -0.267 OA
ATOM      7  C   UNL     1      19.318   5.150   0.283  1.00  0.00     0.097 A 
ATOM      8  C   UNL     1      17.345   4.750   1.670  1.00  0.00     0.153 C 
ENDROOT
BRANCH   1   9
ATOM      9  N   UNL     1      21.724   5.874   3.646  1.00  0.00    -0.336 N 
ATOM     10  H   UNL     1      22.572   5.325   3.757  1.00  0.00     0.168 HD
BRANCH   9  11
ATOM     11  C   UNL     1      22.111   7.244   3.573  1.00  0.00     0.130 A 
ATOM     12  C   UNL     1      23.015   9.634   4.600  1.00  0.00     0.056 A 
ATOM     13  C   UNL     1      23.844   8.704   3.974  1.00  0.00     0.139 A 
ATOM     14  C   UNL     1      21.641   9.406   4.502  1.00  0.00     0.031 A 
ATOM     15  N   UNL     1      23.427   7.529   3.472  1.00  0.00    -0.237 NA
ATOM     16  C   UNL     1      21.183   8.207   3.974  1.00  0.00     0.049 A 
BRANCH  12  17
ATOM     17  N   UNL     1      23.470  10.644   5.469  1.00  0.00    -0.365 N 
ATOM     18  C   UNL     1      25.088  12.420   6.126  1.00  0.00     0.109 C 
ATOM     19  N   UNL     1      24.961  11.938   7.566  1.00  0.00    -0.292 NA
ATOM     20  C   UNL     1      24.765  11.265   5.118  1.00  0.00     0.093 C 
ATOM     21  C   UNL     1      23.599  11.348   7.837  1.00  0.00     0.106 C 
ATOM     22  C   UNL     1      23.342  10.193   6.869  1.00  0.00     0.132 C 
ATOM     23  C   UNL     1      24.694  11.874   3.714  1.00  0.00     0.032 C 
BRANCH  19  24
ATOM     24  C   UNL     1      25.161  13.037   8.589  1.00  0.00     0.108 C 
ATOM     25  C   UNL     1      25.480  14.412   7.984  1.00  0.00     0.181 C 
ATOM     26  C   UNL     1      23.923  13.775   9.139  1.00  0.00     0.181 C 
ATOM     27  O   UNL     1      24.066  14.782   8.091  1.00  0.00    -0.378 OA
ENDBRANCH  19  24
ENDBRANCH  12  17
ENDBRANCH   9  11
ENDBRANCH   1   9
BRANCH   4  28
ATOM     28  C   UNL     1      21.119   5.343  -1.302  1.00  0.00    -0.006 A 
ATOM     29  C   UNL     1      20.520   4.465  -2.219  1.00  0.00     0.029 A 
ATOM     30  C   UNL     1      22.176   6.183  -1.724  1.00  0.00     0.028 A 
ATOM     31  C   UNL     1      21.031   4.423  -3.494  1.00  0.00     0.114 A 
ATOM     32  C   UNL     1      22.727   5.942  -2.992  1.00  0.00     0.141 A 
ATOM     33  N   UNL     1      22.118   5.109  -3.884  1.00  0.00    -0.238 NA
BRANCH  30  34
ATOM     34  C   UNL     1      22.577   7.383  -0.899  1.00  0.00     0.196 C 
BRANCH  34  35
ATOM     35  O   UNL     1      23.831   7.072  -0.270  1.00  0.00    -0.392 OA
ATOM     36  H   UNL     1      24.336   6.519  -0.898  1.00  0.00     0.211 HD
ENDBRANCH  34  35
ENDBRANCH  30  34
BRANCH  32  37
ATOM     37  N   UNL     1      23.973   6.471  -3.438  1.00  0.00    -0.289 N 
ATOM     38  C   UNL     1      25.179   5.685  -3.116  1.00  0.00     0.149 C 
ATOM     39  C   UNL     1      24.092   7.707  -4.106  1.00  0.00     0.276 C 
ATOM     40  C   UNL     1      26.370   6.554  -2.716  1.00  0.00     0.144 C 
ATOM     41  C   UNL     1      25.466   8.060  -4.437  1.00  0.00     0.108 A 
ATOM     42  N   UNL     1      26.553   7.529  -3.768  1.00  0.00    -0.339 N 
ATOM     43  C   UNL     1      25.947   8.957  -5.384  1.00  0.00     0.037 A 
ATOM     44  C   UNL     1      27.678   8.080  -4.259  1.00  0.00     0.022 A 
ATOM     45  C   UNL     1      27.338   8.945  -5.273  1.00  0.00    -0.026 A 
ATOM     46  C   UNL     1      29.116   8.016  -3.966  1.00  0.00     0.061 C 
ATOM     47  C   UNL     1      28.531   9.573  -5.881  1.00  0.00     0.044 C 
ATOM     48  C   UNL     1      29.718   8.730  -5.249  1.00  0.00    -0.026 C 
ATOM     49  O   UNL     1      23.154   8.462  -4.370  1.00  0.00    -0.267 OA
ATOM     50  C   UNL     1      30.889   9.643  -4.875  1.00  0.00     0.012 C 
ATOM     51  C   UNL     1      30.176   7.662  -6.254  1.00  0.00     0.012 C 
ENDBRANCH  32  37
ENDBRANCH   4  28
TORSDOF 8
ENDMDL
MODEL 9
REMARK VINA RESULT:   -10.623      4.807      8.718
REMARK INTER + INTRA:         -15.227
REMARK INTER:                 -13.014
REMARK INTRA:                  -2.213
REMARK UNBOUND:                 0.053
REMARK SMILES C[C@H]1CN(C2COC2)CCN1c1ccc(Nc2cc(-c3ccnc(N4CCn5c(cc6c5CC(C)(C)C6)C4=O)c3CO)cn(C)c2=O)nc1
REMARK SMILES IDX 17 1 18 2 46 3 19 4 44 5 47 6 43 7 45 8 16 9 15 11 12 12
REMARK SMILES IDX 49 13 13 14 48 15 14 16 11 17 3 18 4 19 2 20 9 21 10 22 1 23
REMARK SMILES IDX 5 24 8 25 6 26 7 27 20 28 21 29 40 30 22 31 24 32 23 33
REMARK SMILES IDX 41 34 42 35 25 37 26 38 38 39 27 40 29 41 28 42 30 43 32 44
REMARK SMILES IDX 31 45 33 46 37 47 34 48 39 49 35 50 36 51
REMARK H PARENT 16 10 42 36
ROOT
ATOM      1  C   UNL     1      29.017  11.752   0.294  1.00  0.00     0.107 A 
ATOM      2  C   UNL     1      29.033  11.934   1.619  1.00  0.00     0.042 A 
ATOM      3  C   UNL     1      28.780  12.978  -0.580  1.00  0.00     0.274 A 
ATOM      4  C   UNL     1      28.737  13.210   2.243  1.00  0.00     0.001 A 
ATOM      5  N   UNL     1      28.275  14.097   0.080  1.00  0.00    -0.316 N 
ATOM      6  O   UNL     1      28.974  12.946  -1.799  1.00  0.00    -0.267 OA
ATOM      7  C   UNL     1      28.305  14.209   1.460  1.00  0.00     0.097 A 
ATOM      8  C   UNL     1      27.937  15.273  -0.711  1.00  0.00     0.153 C 
ENDROOT
BRANCH   1   9
ATOM      9  N   UNL     1      29.078  10.488  -0.324  1.00  0.00    -0.336 N 
ATOM     10  H   UNL     1      29.826   9.929   0.077  1.00  0.00     0.168 HD
BRANCH   9  11
ATOM     11  C   UNL     1      27.869   9.746  -0.185  1.00  0.00     0.130 A 
ATOM     12  C   UNL     1      25.602   8.906   1.132  1.00  0.00     0.056 A 
ATOM     13  C   UNL     1      25.609   9.942   0.199  1.00  0.00     0.139 A 
ATOM     14  C   UNL     1      26.770   8.148   1.228  1.00  0.00     0.031 A 
ATOM     15  N   UNL     1      26.704  10.373  -0.451  1.00  0.00    -0.237 NA
ATOM     16  C   UNL     1      27.911   8.562   0.556  1.00  0.00     0.049 A 
BRANCH  12  17
ATOM     17  N   UNL     1      24.593   8.714   2.095  1.00  0.00    -0.365 N 
ATOM     18  C   UNL     1      22.206   8.661   2.805  1.00  0.00     0.109 C 
ATOM     19  N   UNL     1      22.629   9.321   4.112  1.00  0.00    -0.292 NA
ATOM     20  C   UNL     1      23.212   9.004   1.655  1.00  0.00     0.093 C 
ATOM     21  C   UNL     1      24.039   8.943   4.496  1.00  0.00     0.106 C 
ATOM     22  C   UNL     1      24.996   9.339   3.371  1.00  0.00     0.132 C 
ATOM     23  C   UNL     1      22.853   8.137   0.443  1.00  0.00     0.032 C 
BRANCH  19  24
ATOM     24  C   UNL     1      21.752   8.943   5.289  1.00  0.00     0.108 C 
ATOM     25  C   UNL     1      20.925   7.666   5.075  1.00  0.00     0.181 C 
ATOM     26  C   UNL     1      22.367   8.127   6.444  1.00  0.00     0.181 C 
ATOM     27  O   UNL     1      21.947   6.893   5.787  1.00  0.00    -0.378 OA
ENDBRANCH  19  24
ENDBRANCH  12  17
ENDBRANCH   9  11
ENDBRANCH   1   9
BRANCH   4  28
ATOM     28  C   UNL     1      28.760  13.461   3.701  1.00  0.00    -0.006 A 
ATOM     29  C   UNL     1      30.016  13.560   4.319  1.00  0.00     0.029 A 
ATOM     30  C   UNL     1      27.585  13.546   4.484  1.00  0.00     0.028 A 
ATOM     31  C   UNL     1      30.050  13.686   5.686  1.00  0.00     0.114 A 
ATOM     32  C   UNL     1      27.734  13.506   5.880  1.00  0.00     0.141 A 
ATOM     33  N   UNL     1      28.958  13.634   6.467  1.00  0.00    -0.238 NA
BRANCH  30  34
ATOM     34  C   UNL     1      26.250  13.826   3.836  1.00  0.00     0.196 C 
BRANCH  34  35
ATOM     35  O   UNL     1      25.629  12.559   3.568  1.00  0.00    -0.392 OA
ATOM     36  H   UNL     1      24.788  12.542   4.066  1.00  0.00     0.211 HD
ENDBRANCH  34  35
ENDBRANCH  30  34
BRANCH  32  37
ATOM     37  N   UNL     1      26.666  13.267   6.793  1.00  0.00    -0.289 N 
ATOM     38  C   UNL     1      26.295  14.382   7.685  1.00  0.00     0.149 C 
ATOM     39  C   UNL     1      26.013  12.023   6.907  1.00  0.00     0.276 C 
ATOM     40  C   UNL     1      25.958  13.927   9.103  1.00  0.00     0.144 C 
ATOM     41  C   UNL     1      24.975  12.001   7.929  1.00  0.00     0.108 A 
ATOM     42  N   UNL     1      24.953  12.892   8.986  1.00  0.00    -0.339 N 
ATOM     43  C   UNL     1      23.898  11.135   8.082  1.00  0.00     0.037 A 
ATOM     44  C   UNL     1      23.914  12.593   9.786  1.00  0.00     0.022 A 
ATOM     45  C   UNL     1      23.231  11.531   9.241  1.00  0.00    -0.026 A 
ATOM     46  C   UNL     1      23.374  13.077  11.064  1.00  0.00     0.061 C 
ATOM     47  C   UNL     1      22.054  11.160  10.056  1.00  0.00     0.044 C 
ATOM     48  C   UNL     1      21.954  12.368  11.079  1.00  0.00    -0.026 C 
ATOM     49  O   UNL     1      26.287  11.016   6.250  1.00  0.00    -0.267 OA
ATOM     50  C   UNL     1      21.604  11.862  12.482  1.00  0.00     0.012 C 
ATOM     51  C   UNL     1      20.888  13.361  10.591  1.00  0.00     0.012 C 
ENDBRANCH  32  37
ENDBRANCH   4  28
TORSDOF 8
ENDMDL
