MODEL 1
REMARK VINA RESULT:   -12.182      0.000      0.000
REMARK INTER + INTRA:         -18.101
REMARK INTER:                 -17.524
REMARK INTRA:                  -0.578
REMARK UNBOUND:                -0.578
REMARK SMILES C[C@H]1CN(c2cnn(C)c2)CCN1c1ccc(Nc2cc(-c3ccnc(N4CCn5c(cc6c5CC(C)(C)C6)C4=O)c3CO)cn(C)c2=O)nc1
REMARK SMILES IDX 45 1 21 2 20 3 19 4 48 5 46 6 49 7 47 8 22 9 26 10 42 11
REMARK SMILES IDX 25 12 24 13 23 14 27 15 31 16 40 17 30 18 32 19 29 20 34 21
REMARK SMILES IDX 33 22 28 23 35 24 39 25 36 26 41 27 37 28 38 29 43 30 44 31
REMARK SMILES IDX 18 33 17 35 16 36 50 37 15 38 51 39 14 40 13 41 2 42 12 43
REMARK SMILES IDX 3 44 11 45 4 46 1 47 5 48 10 49 6 50 8 51 7 52 9 53
REMARK H PARENT 44 32 18 34
ROOT
ATOM      1  C   UNL     1      20.189   5.144   2.861  1.00  0.00     0.097 A 
ATOM      2  C   UNL     1      21.136   5.923   2.307  1.00  0.00     0.001 A 
ATOM      3  C   UNL     1      21.146   6.086   0.864  1.00  0.00     0.042 A 
ATOM      4  C   UNL     1      20.174   5.605   0.068  1.00  0.00     0.107 A 
ATOM      5  C   UNL     1      18.965   4.962   0.763  1.00  0.00     0.274 A 
ATOM      6  N   UNL     1      19.153   4.623   2.111  1.00  0.00    -0.316 N 
ATOM      7  O   UNL     1      17.884   4.827   0.193  1.00  0.00    -0.267 OA
ATOM      8  C   UNL     1      18.088   3.907   2.792  1.00  0.00     0.153 C 
ENDROOT
BRANCH   2   9
ATOM      9  C   UNL     1      22.117   6.596   3.183  1.00  0.00    -0.006 A 
ATOM     10  C   UNL     1      22.721   7.930   5.099  1.00  0.00     0.141 A 
ATOM     11  C   UNL     1      21.729   7.235   4.386  1.00  0.00     0.028 A 
ATOM     12  N   UNL     1      24.019   7.946   4.697  1.00  0.00    -0.238 NA
ATOM     13  C   UNL     1      24.357   7.293   3.570  1.00  0.00     0.114 A 
ATOM     14  C   UNL     1      23.452   6.626   2.774  1.00  0.00     0.029 A 
BRANCH  10  15
ATOM     15  N   UNL     1      22.424   8.737   6.226  1.00  0.00    -0.289 N 
ATOM     16  C   UNL     1      22.517   9.217   8.576  1.00  0.00     0.108 A 
ATOM     17  C   UNL     1      22.633   8.225   7.515  1.00  0.00     0.276 C 
ATOM     18  N   UNL     1      22.491  10.579   8.326  1.00  0.00    -0.339 N 
ATOM     19  C   UNL     1      22.432   9.042   9.957  1.00  0.00     0.037 A 
ATOM     20  C   UNL     1      22.607  11.100   6.984  1.00  0.00     0.144 C 
ATOM     21  C   UNL     1      22.338  11.234   9.493  1.00  0.00     0.022 A 
ATOM     22  C   UNL     1      22.306  10.325  10.513  1.00  0.00    -0.026 A 
ATOM     23  C   UNL     1      21.958  10.116   6.018  1.00  0.00     0.149 C 
ATOM     24  C   UNL     1      22.204  12.643   9.900  1.00  0.00     0.061 C 
ATOM     25  C   UNL     1      22.147  10.977  11.828  1.00  0.00     0.044 C 
ATOM     26  C   UNL     1      22.365  12.514  11.476  1.00  0.00    -0.026 C 
ATOM     27  O   UNL     1      22.842   7.038   7.759  1.00  0.00    -0.267 OA
ATOM     28  C   UNL     1      23.784  12.945  11.888  1.00  0.00     0.012 C 
ATOM     29  C   UNL     1      21.334  13.385  12.200  1.00  0.00     0.012 C 
ENDBRANCH  10  15
BRANCH  11  30
ATOM     30  C   UNL     1      20.323   7.100   4.904  1.00  0.00     0.196 C 
BRANCH  30  31
ATOM     31  O   UNL     1      19.569   8.259   4.578  1.00  0.00    -0.392 OA
ATOM     32  H   UNL     1      18.779   8.245   5.148  1.00  0.00     0.211 HD
ENDBRANCH  30  31
ENDBRANCH  11  30
ENDBRANCH   2   9
BRANCH   4  33
ATOM     33  N   UNL     1      20.177   5.742  -1.314  1.00  0.00    -0.336 N 
ATOM     34  H   UNL     1      19.921   6.664  -1.650  1.00  0.00     0.168 HD
BRANCH  33  35
ATOM     35  C   UNL     1      21.168   5.181  -2.150  1.00  0.00     0.130 A 
ATOM     36  C   UNL     1      22.499   5.463  -1.863  1.00  0.00     0.049 A 
ATOM     37  N   UNL     1      20.826   4.423  -3.209  1.00  0.00    -0.237 NA
ATOM     38  C   UNL     1      23.501   5.035  -2.741  1.00  0.00     0.031 A 
ATOM     39  C   UNL     1      21.818   4.046  -4.057  1.00  0.00     0.139 A 
ATOM     40  C   UNL     1      23.173   4.347  -3.906  1.00  0.00     0.056 A 
BRANCH  40  41
ATOM     41  N   UNL     1      24.077   4.045  -4.925  1.00  0.00    -0.364 N 
ATOM     42  C   UNL     1      24.377   5.133  -5.926  1.00  0.00     0.098 C 
ATOM     43  C   UNL     1      25.252   3.220  -4.562  1.00  0.00     0.138 C 
ATOM     44  C   UNL     1      25.881   5.540  -5.938  1.00  0.00     0.141 C 
ATOM     45  C   UNL     1      26.485   4.027  -4.083  1.00  0.00     0.138 C 
ATOM     46  N   UNL     1      26.537   5.405  -4.624  1.00  0.00    -0.365 N 
ATOM     47  C   UNL     1      23.469   6.371  -5.861  1.00  0.00     0.033 C 
BRANCH  46  48
ATOM     48  C   UNL     1      26.644   6.455  -3.759  1.00  0.00     0.075 A 
ATOM     49  C   UNL     1      27.018   6.424  -2.433  1.00  0.00     0.134 A 
ATOM     50  C   UNL     1      26.413   7.826  -4.011  1.00  0.00     0.161 A 
ATOM     51  N   UNL     1      27.084   7.729  -2.022  1.00  0.00    -0.274 N 
ATOM     52  N   UNL     1      26.723   8.611  -2.969  1.00  0.00    -0.180 NA
ATOM     53  C   UNL     1      27.532   8.208  -0.735  1.00  0.00     0.173 C 
ENDBRANCH  46  48
ENDBRANCH  40  41
ENDBRANCH  33  35
ENDBRANCH   4  33
TORSDOF 8
ENDMDL
MODEL 2
REMARK VINA RESULT:   -12.144      1.123      1.669
REMARK INTER + INTRA:         -18.046
REMARK INTER:                 -18.112
REMARK INTRA:                   0.066
REMARK UNBOUND:                -0.578
REMARK SMILES C[C@H]1CN(c2cnn(C)c2)CCN1c1ccc(Nc2cc(-c3ccnc(N4CCn5c(cc6c5CC(C)(C)C6)C4=O)c3CO)cn(C)c2=O)nc1
REMARK SMILES IDX 45 1 21 2 20 3 19 4 48 5 46 6 49 7 47 8 22 9 26 10 42 11
REMARK SMILES IDX 25 12 24 13 23 14 27 15 31 16 40 17 30 18 32 19 29 20 34 21
REMARK SMILES IDX 33 22 28 23 35 24 39 25 36 26 41 27 37 28 38 29 43 30 44 31
REMARK SMILES IDX 18 33 17 35 16 36 50 37 15 38 51 39 14 40 13 41 2 42 12 43
REMARK SMILES IDX 3 44 11 45 4 46 1 47 5 48 10 49 6 50 8 51 7 52 9 53
REMARK H PARENT 44 32 18 34
ROOT
ATOM      1  C   UNL     1      19.813   5.275   2.972  1.00  0.00     0.097 A 
ATOM      2  C   UNL     1      20.908   5.774   2.370  1.00  0.00     0.001 A 
ATOM      3  C   UNL     1      21.043   5.620   0.933  1.00  0.00     0.042 A 
ATOM      4  C   UNL     1      20.064   5.121   0.157  1.00  0.00     0.107 A 
ATOM      5  C   UNL     1      18.723   4.821   0.842  1.00  0.00     0.274 A 
ATOM      6  N   UNL     1      18.762   4.756   2.242  1.00  0.00    -0.316 N 
ATOM      7  O   UNL     1      17.676   4.720   0.205  1.00  0.00    -0.267 OA
ATOM      8  C   UNL     1      17.552   4.362   2.943  1.00  0.00     0.153 C 
ENDROOT
BRANCH   2   9
ATOM      9  C   UNL     1      21.921   6.475   3.186  1.00  0.00    -0.006 A 
ATOM     10  C   UNL     1      22.598   7.857   5.043  1.00  0.00     0.141 A 
ATOM     11  C   UNL     1      21.582   7.139   4.391  1.00  0.00     0.028 A 
ATOM     12  N   UNL     1      23.877   7.873   4.583  1.00  0.00    -0.238 NA
ATOM     13  C   UNL     1      24.171   7.197   3.458  1.00  0.00     0.114 A 
ATOM     14  C   UNL     1      23.236   6.505   2.718  1.00  0.00     0.029 A 
BRANCH  10  15
ATOM     15  N   UNL     1      22.345   8.688   6.164  1.00  0.00    -0.289 N 
ATOM     16  C   UNL     1      22.533   9.220   8.496  1.00  0.00     0.108 A 
ATOM     17  C   UNL     1      22.610   8.205   7.454  1.00  0.00     0.276 C 
ATOM     18  N   UNL     1      22.491  10.576   8.218  1.00  0.00    -0.339 N 
ATOM     19  C   UNL     1      22.507   9.076   9.883  1.00  0.00     0.037 A 
ATOM     20  C   UNL     1      22.548  11.067   6.861  1.00  0.00     0.144 C 
ATOM     21  C   UNL     1      22.383  11.256   9.375  1.00  0.00     0.022 A 
ATOM     22  C   UNL     1      22.398  10.370  10.415  1.00  0.00    -0.026 A 
ATOM     23  C   UNL     1      21.864  10.059   5.945  1.00  0.00     0.149 C 
ATOM     24  C   UNL     1      22.260  12.674   9.756  1.00  0.00     0.061 C 
ATOM     25  C   UNL     1      22.292  11.051  11.721  1.00  0.00     0.044 C 
ATOM     26  C   UNL     1      22.487  12.580  11.326  1.00  0.00    -0.026 C 
ATOM     27  O   UNL     1      22.835   7.024   7.715  1.00  0.00    -0.267 OA
ATOM     28  C   UNL     1      23.920  13.026  11.669  1.00  0.00     0.012 C 
ATOM     29  C   UNL     1      21.483  13.463  12.074  1.00  0.00     0.012 C 
ENDBRANCH  10  15
BRANCH  11  30
ATOM     30  C   UNL     1      20.201   7.005   4.974  1.00  0.00     0.196 C 
BRANCH  30  31
ATOM     31  O   UNL     1      19.438   8.170   4.693  1.00  0.00    -0.392 OA
ATOM     32  H   UNL     1      18.928   8.368   5.500  1.00  0.00     0.211 HD
ENDBRANCH  30  31
ENDBRANCH  11  30
ENDBRANCH   2   9
BRANCH   4  33
ATOM     33  N   UNL     1      20.184   4.956  -1.217  1.00  0.00    -0.336 N 
ATOM     34  H   UNL     1      19.402   5.309  -1.758  1.00  0.00     0.168 HD
BRANCH  33  35
ATOM     35  C   UNL     1      21.391   5.161  -1.923  1.00  0.00     0.130 A 
ATOM     36  C   UNL     1      22.417   5.841  -1.278  1.00  0.00     0.049 A 
ATOM     37  N   UNL     1      21.524   4.736  -3.194  1.00  0.00    -0.237 NA
ATOM     38  C   UNL     1      23.576   6.179  -1.986  1.00  0.00     0.031 A 
ATOM     39  C   UNL     1      22.649   5.101  -3.863  1.00  0.00     0.139 A 
ATOM     40  C   UNL     1      23.699   5.853  -3.334  1.00  0.00     0.056 A 
BRANCH  40  41
ATOM     41  N   UNL     1      24.726   6.305  -4.164  1.00  0.00    -0.364 N 
ATOM     42  C   UNL     1      24.806   7.790  -4.416  1.00  0.00     0.098 C 
ATOM     43  C   UNL     1      26.045   5.646  -4.025  1.00  0.00     0.138 C 
ATOM     44  C   UNL     1      26.147   8.412  -3.924  1.00  0.00     0.141 C 
ATOM     45  C   UNL     1      26.982   6.292  -2.973  1.00  0.00     0.138 C 
ATOM     46  N   UNL     1      26.713   7.730  -2.744  1.00  0.00    -0.365 N 
ATOM     47  C   UNL     1      23.603   8.616  -3.937  1.00  0.00     0.033 C 
BRANCH  46  48
ATOM     48  C   UNL     1      26.473   8.168  -1.474  1.00  0.00     0.075 A 
ATOM     49  C   UNL     1      25.622   9.175  -1.074  1.00  0.00     0.134 A 
ATOM     50  C   UNL     1      27.022   7.691  -0.263  1.00  0.00     0.161 A 
ATOM     51  N   UNL     1      25.637   9.169   0.295  1.00  0.00    -0.274 N 
ATOM     52  N   UNL     1      26.481   8.267   0.821  1.00  0.00    -0.180 NA
ATOM     53  C   UNL     1      24.824   9.981   1.172  1.00  0.00     0.173 C 
ENDBRANCH  46  48
ENDBRANCH  40  41
ENDBRANCH  33  35
ENDBRANCH   4  33
TORSDOF 8
ENDMDL
MODEL 3
REMARK VINA RESULT:   -12.143      1.569      2.353
REMARK INTER + INTRA:         -18.045
REMARK INTER:                 -18.548
REMARK INTRA:                   0.503
REMARK UNBOUND:                -0.578
REMARK SMILES C[C@H]1CN(c2cnn(C)c2)CCN1c1ccc(Nc2cc(-c3ccnc(N4CCn5c(cc6c5CC(C)(C)C6)C4=O)c3CO)cn(C)c2=O)nc1
REMARK SMILES IDX 45 1 21 2 20 3 19 4 48 5 46 6 49 7 47 8 22 9 26 10 42 11
REMARK SMILES IDX 25 12 24 13 23 14 27 15 31 16 40 17 30 18 32 19 29 20 34 21
REMARK SMILES IDX 33 22 28 23 35 24 39 25 36 26 41 27 37 28 38 29 43 30 44 31
REMARK SMILES IDX 18 33 17 35 16 36 50 37 15 38 51 39 14 40 13 41 2 42 12 43
REMARK SMILES IDX 3 44 11 45 4 46 1 47 5 48 10 49 6 50 8 51 7 52 9 53
REMARK H PARENT 44 32 18 34
ROOT
ATOM      1  C   UNL     1      19.922   5.300   2.983  1.00  0.00     0.097 A 
ATOM      2  C   UNL     1      21.033   5.778   2.395  1.00  0.00     0.001 A 
ATOM      3  C   UNL     1      21.195   5.596   0.963  1.00  0.00     0.042 A 
ATOM      4  C   UNL     1      20.227   5.091   0.177  1.00  0.00     0.107 A 
ATOM      5  C   UNL     1      18.870   4.815   0.841  1.00  0.00     0.274 A 
ATOM      6  N   UNL     1      18.880   4.777   2.243  1.00  0.00    -0.316 N 
ATOM      7  O   UNL     1      17.834   4.711   0.186  1.00  0.00    -0.267 OA
ATOM      8  C   UNL     1      17.653   4.406   2.927  1.00  0.00     0.153 C 
ENDROOT
BRANCH   2   9
ATOM      9  C   UNL     1      22.036   6.486   3.217  1.00  0.00    -0.006 A 
ATOM     10  C   UNL     1      22.691   7.872   5.078  1.00  0.00     0.141 A 
ATOM     11  C   UNL     1      21.684   7.147   4.419  1.00  0.00     0.028 A 
ATOM     12  N   UNL     1      23.973   7.898   4.626  1.00  0.00    -0.238 NA
ATOM     13  C   UNL     1      24.279   7.224   3.502  1.00  0.00     0.114 A 
ATOM     14  C   UNL     1      23.353   6.525   2.757  1.00  0.00     0.029 A 
BRANCH  10  15
ATOM     15  N   UNL     1      22.426   8.702   6.197  1.00  0.00    -0.289 N 
ATOM     16  C   UNL     1      22.561   9.215   8.537  1.00  0.00     0.108 A 
ATOM     17  C   UNL     1      22.645   8.205   7.490  1.00  0.00     0.276 C 
ATOM     18  N   UNL     1      22.555  10.574   8.267  1.00  0.00    -0.339 N 
ATOM     19  C   UNL     1      22.495   9.063   9.922  1.00  0.00     0.037 A 
ATOM     20  C   UNL     1      22.661  11.072   6.916  1.00  0.00     0.144 C 
ATOM     21  C   UNL     1      22.431  11.249   9.426  1.00  0.00     0.022 A 
ATOM     22  C   UNL     1      22.399  10.356  10.460  1.00  0.00    -0.026 A 
ATOM     23  C   UNL     1      21.981  10.085   5.975  1.00  0.00     0.149 C 
ATOM     24  C   UNL     1      22.328  12.666   9.813  1.00  0.00     0.061 C 
ATOM     25  C   UNL     1      22.271  11.030  11.767  1.00  0.00     0.044 C 
ATOM     26  C   UNL     1      22.510  12.558  11.388  1.00  0.00    -0.026 C 
ATOM     27  O   UNL     1      22.837   7.018   7.749  1.00  0.00    -0.267 OA
ATOM     28  C   UNL     1      23.942  12.970  11.773  1.00  0.00     0.012 C 
ATOM     29  C   UNL     1      21.505  13.457  12.114  1.00  0.00     0.012 C 
ENDBRANCH  10  15
BRANCH  11  30
ATOM     30  C   UNL     1      20.301   7.005   4.993  1.00  0.00     0.196 C 
BRANCH  30  31
ATOM     31  O   UNL     1      19.526   8.157   4.693  1.00  0.00    -0.392 OA
ATOM     32  H   UNL     1      19.463   8.203   3.722  1.00  0.00     0.211 HD
ENDBRANCH  30  31
ENDBRANCH  11  30
ENDBRANCH   2   9
BRANCH   4  33
ATOM     33  N   UNL     1      20.372   4.899  -1.190  1.00  0.00    -0.336 N 
ATOM     34  H   UNL     1      19.559   5.148  -1.744  1.00  0.00     0.168 HD
BRANCH  33  35
ATOM     35  C   UNL     1      21.553   5.212  -1.900  1.00  0.00     0.130 A 
ATOM     36  C   UNL     1      21.990   4.315  -2.868  1.00  0.00     0.049 A 
ATOM     37  N   UNL     1      22.247   6.332  -1.619  1.00  0.00    -0.237 NA
ATOM     38  C   UNL     1      23.223   4.524  -3.497  1.00  0.00     0.031 A 
ATOM     39  C   UNL     1      23.451   6.493  -2.228  1.00  0.00     0.139 A 
ATOM     40  C   UNL     1      24.019   5.612  -3.150  1.00  0.00     0.056 A 
BRANCH  40  41
ATOM     41  N   UNL     1      25.331   5.800  -3.584  1.00  0.00    -0.364 N 
ATOM     42  C   UNL     1      25.565   5.843  -5.074  1.00  0.00     0.098 C 
ATOM     43  C   UNL     1      26.166   6.752  -2.816  1.00  0.00     0.138 C 
ATOM     44  C   UNL     1      26.164   7.200  -5.549  1.00  0.00     0.141 C 
ATOM     45  C   UNL     1      26.085   8.221  -3.302  1.00  0.00     0.138 C 
ATOM     46  N   UNL     1      25.731   8.352  -4.735  1.00  0.00    -0.365 N 
ATOM     47  C   UNL     1      24.374   5.426  -5.950  1.00  0.00     0.033 C 
BRANCH  46  48
ATOM     48  C   UNL     1      24.664   9.124  -5.088  1.00  0.00     0.075 A 
ATOM     49  C   UNL     1      24.373   9.647  -6.330  1.00  0.00     0.134 A 
ATOM     50  C   UNL     1      23.592   9.564  -4.280  1.00  0.00     0.161 A 
ATOM     51  N   UNL     1      23.150  10.252  -6.215  1.00  0.00    -0.274 N 
ATOM     52  N   UNL     1      22.644  10.213  -4.971  1.00  0.00    -0.180 NA
ATOM     53  C   UNL     1      22.381  10.855  -7.279  1.00  0.00     0.173 C 
ENDBRANCH  46  48
ENDBRANCH  40  41
ENDBRANCH  33  35
ENDBRANCH   4  33
TORSDOF 8
ENDMDL
MODEL 4
REMARK VINA RESULT:   -12.104      1.675      1.936
REMARK INTER + INTRA:         -17.989
REMARK INTER:                 -17.410
REMARK INTRA:                  -0.579
REMARK UNBOUND:                -0.578
REMARK SMILES C[C@H]1CN(c2cnn(C)c2)CCN1c1ccc(Nc2cc(-c3ccnc(N4CCn5c(cc6c5CC(C)(C)C6)C4=O)c3CO)cn(C)c2=O)nc1
REMARK SMILES IDX 45 1 21 2 20 3 19 4 48 5 46 6 49 7 47 8 22 9 26 10 42 11
REMARK SMILES IDX 25 12 24 13 23 14 27 15 31 16 40 17 30 18 32 19 29 20 34 21
REMARK SMILES IDX 33 22 28 23 35 24 39 25 36 26 41 27 37 28 38 29 43 30 44 31
REMARK SMILES IDX 18 33 17 35 16 36 50 37 15 38 51 39 14 40 13 41 2 42 12 43
REMARK SMILES IDX 3 44 11 45 4 46 1 47 5 48 10 49 6 50 8 51 7 52 9 53
REMARK H PARENT 44 32 18 34
ROOT
ATOM      1  C   UNL     1      20.024   5.354   3.268  1.00  0.00     0.097 A 
ATOM      2  C   UNL     1      21.037   5.764   2.483  1.00  0.00     0.001 A 
ATOM      3  C   UNL     1      20.883   5.667   1.042  1.00  0.00     0.042 A 
ATOM      4  C   UNL     1      19.727   5.312   0.454  1.00  0.00     0.107 A 
ATOM      5  C   UNL     1      18.512   5.121   1.373  1.00  0.00     0.274 A 
ATOM      6  N   UNL     1      18.803   4.984   2.738  1.00  0.00    -0.316 N 
ATOM      7  O   UNL     1      17.360   5.162   0.946  1.00  0.00    -0.267 OA
ATOM      8  C   UNL     1      17.709   4.685   3.646  1.00  0.00     0.153 C 
ENDROOT
BRANCH   2   9
ATOM      9  C   UNL     1      22.256   6.314   3.110  1.00  0.00    -0.006 A 
ATOM     10  C   UNL     1      23.437   7.947   4.434  1.00  0.00     0.141 A 
ATOM     11  C   UNL     1      22.213   7.443   3.965  1.00  0.00     0.028 A 
ATOM     12  N   UNL     1      24.622   7.351   4.140  1.00  0.00    -0.238 NA
ATOM     13  C   UNL     1      24.620   6.255   3.358  1.00  0.00     0.114 A 
ATOM     14  C   UNL     1      23.479   5.713   2.808  1.00  0.00     0.029 A 
BRANCH  10  15
ATOM     15  N   UNL     1      23.533   9.161   5.161  1.00  0.00    -0.289 N 
ATOM     16  C   UNL     1      23.746  10.397   7.207  1.00  0.00     0.108 A 
ATOM     17  C   UNL     1      23.399   9.140   6.558  1.00  0.00     0.276 C 
ATOM     18  N   UNL     1      24.416  11.418   6.553  1.00  0.00    -0.339 N 
ATOM     19  C   UNL     1      23.523  10.816   8.519  1.00  0.00     0.037 A 
ATOM     20  C   UNL     1      24.837  11.279   5.178  1.00  0.00     0.144 C 
ATOM     21  C   UNL     1      24.558  12.458   7.395  1.00  0.00     0.022 A 
ATOM     22  C   UNL     1      24.030  12.121   8.611  1.00  0.00    -0.026 A 
ATOM     23  C   UNL     1      23.828  10.407   4.441  1.00  0.00     0.149 C 
ATOM     24  C   UNL     1      25.128  13.813   7.309  1.00  0.00     0.061 C 
ATOM     25  C   UNL     1      24.159  13.218   9.590  1.00  0.00     0.044 C 
ATOM     26  C   UNL     1      25.132  14.232   8.842  1.00  0.00    -0.026 C 
ATOM     27  O   UNL     1      22.976   8.176   7.195  1.00  0.00    -0.267 OA
ATOM     28  C   UNL     1      26.555  14.102   9.411  1.00  0.00     0.012 C 
ATOM     29  C   UNL     1      24.642  15.674   9.012  1.00  0.00     0.012 C 
ENDBRANCH  10  15
BRANCH  11  30
ATOM     30  C   UNL     1      20.894   8.020   4.403  1.00  0.00     0.196 C 
BRANCH  30  31
ATOM     31  O   UNL     1      20.548   7.527   5.690  1.00  0.00    -0.392 OA
ATOM     32  H   UNL     1      19.583   7.392   5.684  1.00  0.00     0.211 HD
ENDBRANCH  30  31
ENDBRANCH  11  30
ENDBRANCH   2   9
BRANCH   4  33
ATOM     33  N   UNL     1      19.569   5.203  -0.922  1.00  0.00    -0.336 N 
ATOM     34  H   UNL     1      18.921   5.868  -1.330  1.00  0.00     0.168 HD
BRANCH  33  35
ATOM     35  C   UNL     1      20.640   4.963  -1.812  1.00  0.00     0.130 A 
ATOM     36  C   UNL     1      21.898   5.439  -1.461  1.00  0.00     0.049 A 
ATOM     37  N   UNL     1      20.435   4.320  -2.977  1.00  0.00    -0.237 NA
ATOM     38  C   UNL     1      22.955   5.338  -2.373  1.00  0.00     0.031 A 
ATOM     39  C   UNL     1      21.473   4.261  -3.852  1.00  0.00     0.139 A 
ATOM     40  C   UNL     1      22.750   4.780  -3.632  1.00  0.00     0.056 A 
BRANCH  40  41
ATOM     41  N   UNL     1      23.686   4.803  -4.667  1.00  0.00    -0.364 N 
ATOM     42  C   UNL     1      23.797   6.077  -5.468  1.00  0.00     0.098 C 
ATOM     43  C   UNL     1      24.983   4.134  -4.418  1.00  0.00     0.138 C 
ATOM     44  C   UNL     1      25.212   6.721  -5.380  1.00  0.00     0.141 C 
ATOM     45  C   UNL     1      26.068   5.040  -3.786  1.00  0.00     0.138 C 
ATOM     46  N   UNL     1      25.890   6.479  -4.092  1.00  0.00    -0.365 N 
ATOM     47  C   UNL     1      22.697   7.121  -5.221  1.00  0.00     0.033 C 
BRANCH  46  48
ATOM     48  C   UNL     1      25.826   7.374  -3.064  1.00  0.00     0.075 A 
ATOM     49  C   UNL     1      26.584   7.397  -1.914  1.00  0.00     0.134 A 
ATOM     50  C   UNL     1      24.983   8.501  -2.933  1.00  0.00     0.161 A 
ATOM     51  N   UNL     1      26.235   8.540  -1.246  1.00  0.00    -0.274 N 
ATOM     52  N   UNL     1      25.260   9.240  -1.849  1.00  0.00    -0.180 NA
ATOM     53  C   UNL     1      26.834   9.050  -0.034  1.00  0.00     0.173 C 
ENDBRANCH  46  48
ENDBRANCH  40  41
ENDBRANCH  33  35
ENDBRANCH   4  33
TORSDOF 8
ENDMDL
MODEL 5
REMARK VINA RESULT:   -12.051      1.398      2.027
REMARK INTER + INTRA:         -17.912
REMARK INTER:                 -17.903
REMARK INTRA:                  -0.009
REMARK UNBOUND:                -0.578
REMARK SMILES C[C@H]1CN(c2cnn(C)c2)CCN1c1ccc(Nc2cc(-c3ccnc(N4CCn5c(cc6c5CC(C)(C)C6)C4=O)c3CO)cn(C)c2=O)nc1
REMARK SMILES IDX 45 1 21 2 20 3 19 4 48 5 46 6 49 7 47 8 22 9 26 10 42 11
REMARK SMILES IDX 25 12 24 13 23 14 27 15 31 16 40 17 30 18 32 19 29 20 34 21
REMARK SMILES IDX 33 22 28 23 35 24 39 25 36 26 41 27 37 28 38 29 43 30 44 31
REMARK SMILES IDX 18 33 17 35 16 36 50 37 15 38 51 39 14 40 13 41 2 42 12 43
REMARK SMILES IDX 3 44 11 45 4 46 1 47 5 48 10 49 6 50 8 51 7 52 9 53
REMARK H PARENT 44 32 18 34
ROOT
ATOM      1  C   UNL     1      19.972   5.282   3.202  1.00  0.00     0.097 A 
ATOM      2  C   UNL     1      21.056   5.626   2.483  1.00  0.00     0.001 A 
ATOM      3  C   UNL     1      21.003   5.492   1.038  1.00  0.00     0.042 A 
ATOM      4  C   UNL     1      19.878   5.168   0.375  1.00  0.00     0.107 A 
ATOM      5  C   UNL     1      18.593   5.055   1.208  1.00  0.00     0.274 A 
ATOM      6  N   UNL     1      18.778   4.948   2.594  1.00  0.00    -0.316 N 
ATOM      7  O   UNL     1      17.477   5.130   0.696  1.00  0.00    -0.267 OA
ATOM      8  C   UNL     1      17.609   4.722   3.426  1.00  0.00     0.153 C 
ENDROOT
BRANCH   2   9
ATOM      9  C   UNL     1      22.249   6.144   3.183  1.00  0.00    -0.006 A 
ATOM     10  C   UNL     1      23.334   7.359   4.961  1.00  0.00     0.141 A 
ATOM     11  C   UNL     1      22.153   6.820   4.424  1.00  0.00     0.028 A 
ATOM     12  N   UNL     1      24.541   7.194   4.358  1.00  0.00    -0.238 NA
ATOM     13  C   UNL     1      24.599   6.510   3.200  1.00  0.00     0.114 A 
ATOM     14  C   UNL     1      23.492   5.987   2.568  1.00  0.00     0.029 A 
BRANCH  10  15
ATOM     15  N   UNL     1      23.339   8.190   6.110  1.00  0.00    -0.289 N 
ATOM     16  C   UNL     1      22.939  10.279   7.220  1.00  0.00     0.108 A 
ATOM     17  C   UNL     1      23.145   9.571   5.964  1.00  0.00     0.276 C 
ATOM     18  N   UNL     1      22.671   9.626   8.413  1.00  0.00    -0.339 N 
ATOM     19  C   UNL     1      22.944  11.649   7.485  1.00  0.00     0.037 A 
ATOM     20  C   UNL     1      22.553   8.188   8.471  1.00  0.00     0.144 C 
ATOM     21  C   UNL     1      22.570  10.538   9.398  1.00  0.00     0.022 A 
ATOM     22  C   UNL     1      22.723  11.787   8.865  1.00  0.00    -0.026 A 
ATOM     23  C   UNL     1      23.491   7.576   7.437  1.00  0.00     0.149 C 
ATOM     24  C   UNL     1      22.339  10.497  10.852  1.00  0.00     0.061 C 
ATOM     25  C   UNL     1      22.615  12.842   9.892  1.00  0.00     0.044 C 
ATOM     26  C   UNL     1      22.079  12.035  11.155  1.00  0.00    -0.026 C 
ATOM     27  O   UNL     1      23.196  10.164   4.887  1.00  0.00    -0.267 OA
ATOM     28  C   UNL     1      20.570  12.281  11.326  1.00  0.00     0.012 C 
ATOM     29  C   UNL     1      22.816  12.471  12.425  1.00  0.00     0.012 C 
ENDBRANCH  10  15
BRANCH  11  30
ATOM     30  C   UNL     1      20.842   6.883   5.160  1.00  0.00     0.196 C 
BRANCH  30  31
ATOM     31  O   UNL     1      20.216   8.138   4.937  1.00  0.00    -0.392 OA
ATOM     32  H   UNL     1      20.798   8.812   5.333  1.00  0.00     0.211 HD
ENDBRANCH  30  31
ENDBRANCH  11  30
ENDBRANCH   2   9
BRANCH   4  33
ATOM     33  N   UNL     1      19.816   5.023  -1.004  1.00  0.00    -0.336 N 
ATOM     34  H   UNL     1      19.011   5.459  -1.442  1.00  0.00     0.168 HD
BRANCH  33  35
ATOM     35  C   UNL     1      20.943   5.131  -1.850  1.00  0.00     0.130 A 
ATOM     36  C   UNL     1      22.133   5.587  -1.295  1.00  0.00     0.049 A 
ATOM     37  N   UNL     1      20.851   4.830  -3.160  1.00  0.00    -0.237 NA
ATOM     38  C   UNL     1      23.233   5.832  -2.125  1.00  0.00     0.031 A 
ATOM     39  C   UNL     1      21.927   5.103  -3.943  1.00  0.00     0.139 A 
ATOM     40  C   UNL     1      23.138   5.639  -3.500  1.00  0.00     0.056 A 
BRANCH  40  41
ATOM     41  N   UNL     1      24.111   6.028  -4.421  1.00  0.00    -0.364 N 
ATOM     42  C   UNL     1      24.227   7.503  -4.720  1.00  0.00     0.098 C 
ATOM     43  C   UNL     1      25.411   5.321  -4.368  1.00  0.00     0.138 C 
ATOM     44  C   UNL     1      25.625   8.082  -4.353  1.00  0.00     0.141 C 
ATOM     45  C   UNL     1      26.453   5.954  -3.413  1.00  0.00     0.138 C 
ATOM     46  N   UNL     1      26.258   7.407  -3.204  1.00  0.00    -0.365 N 
ATOM     47  C   UNL     1      23.098   8.388  -4.170  1.00  0.00     0.033 C 
BRANCH  46  48
ATOM     48  C   UNL     1      26.138   7.886  -1.932  1.00  0.00     0.075 A 
ATOM     49  C   UNL     1      25.213   8.788  -1.451  1.00  0.00     0.134 A 
ATOM     50  C   UNL     1      26.916   7.567  -0.797  1.00  0.00     0.161 A 
ATOM     51  N   UNL     1      25.422   8.869  -0.101  1.00  0.00    -0.274 N 
ATOM     52  N   UNL     1      26.455   8.128   0.330  1.00  0.00    -0.180 NA
ATOM     53  C   UNL     1      24.630   9.613   0.852  1.00  0.00     0.173 C 
ENDBRANCH  46  48
ENDBRANCH  40  41
ENDBRANCH  33  35
ENDBRANCH   4  33
TORSDOF 8
ENDMDL
MODEL 6
REMARK VINA RESULT:   -11.949      1.310      3.047
REMARK INTER + INTRA:         -17.766
REMARK INTER:                 -18.185
REMARK INTRA:                   0.419
REMARK UNBOUND:                -0.578
REMARK SMILES C[C@H]1CN(c2cnn(C)c2)CCN1c1ccc(Nc2cc(-c3ccnc(N4CCn5c(cc6c5CC(C)(C)C6)C4=O)c3CO)cn(C)c2=O)nc1
REMARK SMILES IDX 45 1 21 2 20 3 19 4 48 5 46 6 49 7 47 8 22 9 26 10 42 11
REMARK SMILES IDX 25 12 24 13 23 14 27 15 31 16 40 17 30 18 32 19 29 20 34 21
REMARK SMILES IDX 33 22 28 23 35 24 39 25 36 26 41 27 37 28 38 29 43 30 44 31
REMARK SMILES IDX 18 33 17 35 16 36 50 37 15 38 51 39 14 40 13 41 2 42 12 43
REMARK SMILES IDX 3 44 11 45 4 46 1 47 5 48 10 49 6 50 8 51 7 52 9 53
REMARK H PARENT 44 32 18 34
ROOT
ATOM      1  C   UNL     1      19.912   5.356   3.032  1.00  0.00     0.097 A 
ATOM      2  C   UNL     1      21.056   5.781   2.467  1.00  0.00     0.001 A 
ATOM      3  C   UNL     1      21.263   5.542   1.049  1.00  0.00     0.042 A 
ATOM      4  C   UNL     1      20.308   5.037   0.247  1.00  0.00     0.107 A 
ATOM      5  C   UNL     1      18.921   4.824   0.871  1.00  0.00     0.274 A 
ATOM      6  N   UNL     1      18.881   4.837   2.273  1.00  0.00    -0.316 N 
ATOM      7  O   UNL     1      17.907   4.727   0.183  1.00  0.00    -0.267 OA
ATOM      8  C   UNL     1      17.620   4.527   2.925  1.00  0.00     0.153 C 
ENDROOT
BRANCH   2   9
ATOM      9  C   UNL     1      22.051   6.488   3.300  1.00  0.00    -0.006 A 
ATOM     10  C   UNL     1      22.686   7.884   5.160  1.00  0.00     0.141 A 
ATOM     11  C   UNL     1      21.685   7.161   4.492  1.00  0.00     0.028 A 
ATOM     12  N   UNL     1      23.974   7.899   4.729  1.00  0.00    -0.238 NA
ATOM     13  C   UNL     1      24.293   7.215   3.615  1.00  0.00     0.114 A 
ATOM     14  C   UNL     1      23.375   6.516   2.860  1.00  0.00     0.029 A 
BRANCH  10  15
ATOM     15  N   UNL     1      22.408   8.723   6.269  1.00  0.00    -0.289 N 
ATOM     16  C   UNL     1      22.532   9.265   8.604  1.00  0.00     0.108 A 
ATOM     17  C   UNL     1      22.630   8.245   7.569  1.00  0.00     0.276 C 
ATOM     18  N   UNL     1      22.511  10.621   8.318  1.00  0.00    -0.339 N 
ATOM     19  C   UNL     1      22.464   9.129   9.990  1.00  0.00     0.037 A 
ATOM     20  C   UNL     1      22.613  11.104   6.961  1.00  0.00     0.144 C 
ATOM     21  C   UNL     1      22.375  11.308   9.468  1.00  0.00     0.022 A 
ATOM     22  C   UNL     1      22.352  10.427  10.512  1.00  0.00    -0.026 A 
ATOM     23  C   UNL     1      21.947  10.098   6.030  1.00  0.00     0.149 C 
ATOM     24  C   UNL     1      22.255  12.728   9.839  1.00  0.00     0.061 C 
ATOM     25  C   UNL     1      22.213  11.115  11.811  1.00  0.00     0.044 C 
ATOM     26  C   UNL     1      22.435  12.641  11.415  1.00  0.00    -0.026 C 
ATOM     27  O   UNL     1      22.836   7.063   7.842  1.00  0.00    -0.267 OA
ATOM     28  C   UNL     1      23.861  13.074  11.798  1.00  0.00     0.012 C 
ATOM     29  C   UNL     1      21.418  13.536  12.129  1.00  0.00     0.012 C 
ENDBRANCH  10  15
BRANCH  11  30
ATOM     30  C   UNL     1      20.291   7.031   5.045  1.00  0.00     0.196 C 
BRANCH  30  31
ATOM     31  O   UNL     1      19.531   8.189   4.732  1.00  0.00    -0.392 OA
ATOM     32  H   UNL     1      20.149   8.825   4.327  1.00  0.00     0.211 HD
ENDBRANCH  30  31
ENDBRANCH  11  30
ENDBRANCH   2   9
BRANCH   4  33
ATOM     33  N   UNL     1      20.495   4.791  -1.106  1.00  0.00    -0.336 N 
ATOM     34  H   UNL     1      19.643   4.762  -1.656  1.00  0.00     0.168 HD
BRANCH  33  35
ATOM     35  C   UNL     1      21.539   5.367  -1.865  1.00  0.00     0.130 A 
ATOM     36  C   UNL     1      21.665   4.986  -3.196  1.00  0.00     0.049 A 
ATOM     37  N   UNL     1      22.401   6.235  -1.301  1.00  0.00    -0.237 NA
ATOM     38  C   UNL     1      22.761   5.432  -3.943  1.00  0.00     0.031 A 
ATOM     39  C   UNL     1      23.469   6.629  -2.042  1.00  0.00     0.139 A 
ATOM     40  C   UNL     1      23.733   6.239  -3.357  1.00  0.00     0.056 A 
BRANCH  40  41
ATOM     41  N   UNL     1      24.944   6.579  -3.960  1.00  0.00    -0.364 N 
ATOM     42  C   UNL     1      25.937   5.466  -4.188  1.00  0.00     0.098 C 
ATOM     43  C   UNL     1      24.898   7.577  -5.053  1.00  0.00     0.138 C 
ATOM     44  C   UNL     1      26.276   5.262  -5.695  1.00  0.00     0.141 C 
ATOM     45  C   UNL     1      24.677   6.979  -6.465  1.00  0.00     0.138 C 
ATOM     46  N   UNL     1      25.154   5.583  -6.598  1.00  0.00    -0.365 N 
ATOM     47  C   UNL     1      25.611   4.128  -3.507  1.00  0.00     0.033 C 
BRANCH  46  48
ATOM     48  C   UNL     1      24.291   4.625  -7.044  1.00  0.00     0.075 A 
ATOM     49  C   UNL     1      23.023   4.802  -7.557  1.00  0.00     0.134 A 
ATOM     50  C   UNL     1      24.485   3.228  -7.105  1.00  0.00     0.161 A 
ATOM     51  N   UNL     1      22.600   3.567  -7.968  1.00  0.00    -0.274 N 
ATOM     52  N   UNL     1      23.477   2.583  -7.709  1.00  0.00    -0.180 NA
ATOM     53  C   UNL     1      21.371   3.262  -8.664  1.00  0.00     0.173 C 
ENDBRANCH  46  48
ENDBRANCH  40  41
ENDBRANCH  33  35
ENDBRANCH   4  33
TORSDOF 8
ENDMDL
MODEL 7
REMARK VINA RESULT:   -11.846      1.525      2.736
REMARK INTER + INTRA:         -17.617
REMARK INTER:                 -17.037
REMARK INTRA:                  -0.580
REMARK UNBOUND:                -0.578
REMARK SMILES C[C@H]1CN(c2cnn(C)c2)CCN1c1ccc(Nc2cc(-c3ccnc(N4CCn5c(cc6c5CC(C)(C)C6)C4=O)c3CO)cn(C)c2=O)nc1
REMARK SMILES IDX 45 1 21 2 20 3 19 4 48 5 46 6 49 7 47 8 22 9 26 10 42 11
REMARK SMILES IDX 25 12 24 13 23 14 27 15 31 16 40 17 30 18 32 19 29 20 34 21
REMARK SMILES IDX 33 22 28 23 35 24 39 25 36 26 41 27 37 28 38 29 43 30 44 31
REMARK SMILES IDX 18 33 17 35 16 36 50 37 15 38 51 39 14 40 13 41 2 42 12 43
REMARK SMILES IDX 3 44 11 45 4 46 1 47 5 48 10 49 6 50 8 51 7 52 9 53
REMARK H PARENT 44 32 18 34
ROOT
ATOM      1  C   UNL     1      20.680   5.574   2.387  1.00  0.00     0.097 A 
ATOM      2  C   UNL     1      21.863   6.080   1.994  1.00  0.00     0.001 A 
ATOM      3  C   UNL     1      22.234   5.975   0.594  1.00  0.00     0.042 A 
ATOM      4  C   UNL     1      21.393   5.516  -0.351  1.00  0.00     0.107 A 
ATOM      5  C   UNL     1      19.955   5.209   0.091  1.00  0.00     0.274 A 
ATOM      6  N   UNL     1      19.760   5.095   1.475  1.00  0.00    -0.316 N 
ATOM      7  O   UNL     1      19.028   5.144  -0.714  1.00  0.00    -0.267 OA
ATOM      8  C   UNL     1      18.448   4.692   1.950  1.00  0.00     0.153 C 
ENDROOT
BRANCH   2   9
ATOM      9  C   UNL     1      22.731   6.739   2.992  1.00  0.00    -0.006 A 
ATOM     10  C   UNL     1      23.100   8.022   5.000  1.00  0.00     0.141 A 
ATOM     11  C   UNL     1      22.204   7.337   4.163  1.00  0.00     0.028 A 
ATOM     12  N   UNL     1      24.434   8.065   4.745  1.00  0.00    -0.238 NA
ATOM     13  C   UNL     1      24.904   7.450   3.644  1.00  0.00     0.114 A 
ATOM     14  C   UNL     1      24.102   6.796   2.734  1.00  0.00     0.029 A 
BRANCH  10  15
ATOM     15  N   UNL     1      22.670   8.791   6.110  1.00  0.00    -0.289 N 
ATOM     16  C   UNL     1      22.455   9.179   8.469  1.00  0.00     0.108 A 
ATOM     17  C   UNL     1      22.695   8.226   7.393  1.00  0.00     0.276 C 
ATOM     18  N   UNL     1      22.486  10.550   8.274  1.00  0.00    -0.339 N 
ATOM     19  C   UNL     1      22.183   8.953   9.818  1.00  0.00     0.037 A 
ATOM     20  C   UNL     1      22.790  11.119   6.982  1.00  0.00     0.144 C 
ATOM     21  C   UNL     1      22.189  11.163   9.435  1.00  0.00     0.022 A 
ATOM     22  C   UNL     1      22.006  10.216  10.404  1.00  0.00    -0.026 A 
ATOM     23  C   UNL     1      22.259  10.187   5.898  1.00  0.00     0.149 C 
ATOM     24  C   UNL     1      22.027  12.558   9.879  1.00  0.00     0.061 C 
ATOM     25  C   UNL     1      21.684  10.821  11.712  1.00  0.00     0.044 C 
ATOM     26  C   UNL     1      21.974  12.365  11.455  1.00  0.00    -0.026 C 
ATOM     27  O   UNL     1      22.849   7.026   7.614  1.00  0.00    -0.267 OA
ATOM     28  C   UNL     1      23.331  12.748  12.070  1.00  0.00     0.012 C 
ATOM     29  C   UNL     1      20.870  13.230  12.071  1.00  0.00     0.012 C 
ENDBRANCH  10  15
BRANCH  11  30
ATOM     30  C   UNL     1      20.751   7.170   4.518  1.00  0.00     0.196 C 
BRANCH  30  31
ATOM     31  O   UNL     1      20.602   6.164   5.508  1.00  0.00    -0.392 OA
ATOM     32  H   UNL     1      21.486   5.775   5.643  1.00  0.00     0.211 HD
ENDBRANCH  30  31
ENDBRANCH  11  30
ENDBRANCH   2   9
BRANCH   4  33
ATOM     33  N   UNL     1      21.739   5.397  -1.691  1.00  0.00    -0.336 N 
ATOM     34  H   UNL     1      20.953   5.363  -2.331  1.00  0.00     0.168 HD
BRANCH  33  35
ATOM     35  C   UNL     1      22.814   6.098  -2.283  1.00  0.00     0.130 A 
ATOM     36  C   UNL     1      23.878   5.357  -2.783  1.00  0.00     0.049 A 
ATOM     37  N   UNL     1      22.814   7.444  -2.330  1.00  0.00    -0.237 NA
ATOM     38  C   UNL     1      25.018   6.018  -3.257  1.00  0.00     0.031 A 
ATOM     39  C   UNL     1      23.944   8.056  -2.770  1.00  0.00     0.139 A 
ATOM     40  C   UNL     1      25.098   7.407  -3.214  1.00  0.00     0.056 A 
BRANCH  40  41
ATOM     41  N   UNL     1      26.254   8.139  -3.489  1.00  0.00    -0.364 N 
ATOM     42  C   UNL     1      27.286   8.235  -2.393  1.00  0.00     0.098 C 
ATOM     43  C   UNL     1      26.828   8.009  -4.847  1.00  0.00     0.138 C 
ATOM     44  C   UNL     1      28.658   7.622  -2.804  1.00  0.00     0.141 C 
ATOM     45  C   UNL     1      27.851   6.856  -5.009  1.00  0.00     0.138 C 
ATOM     46  N   UNL     1      28.538   6.494  -3.748  1.00  0.00    -0.365 N 
ATOM     47  C   UNL     1      26.844   7.728  -1.011  1.00  0.00     0.033 C 
BRANCH  46  48
ATOM     48  C   UNL     1      28.507   5.198  -3.322  1.00  0.00     0.075 A 
ATOM     49  C   UNL     1      28.651   4.055  -4.079  1.00  0.00     0.134 A 
ATOM     50  C   UNL     1      28.335   4.709  -2.007  1.00  0.00     0.161 A 
ATOM     51  N   UNL     1      28.658   3.008  -3.197  1.00  0.00    -0.274 N 
ATOM     52  N   UNL     1      28.473   3.379  -1.919  1.00  0.00    -0.180 NA
ATOM     53  C   UNL     1      28.887   1.616  -3.510  1.00  0.00     0.173 C 
ENDBRANCH  46  48
ENDBRANCH  40  41
ENDBRANCH  33  35
ENDBRANCH   4  33
TORSDOF 8
ENDMDL
MODEL 8
REMARK VINA RESULT:   -10.362      4.370      8.566
REMARK INTER + INTRA:         -15.483
REMARK INTER:                 -13.799
REMARK INTRA:                  -1.684
REMARK UNBOUND:                -0.578
REMARK SMILES C[C@H]1CN(c2cnn(C)c2)CCN1c1ccc(Nc2cc(-c3ccnc(N4CCn5c(cc6c5CC(C)(C)C6)C4=O)c3CO)cn(C)c2=O)nc1
REMARK SMILES IDX 45 1 21 2 20 3 19 4 48 5 46 6 49 7 47 8 22 9 26 10 42 11
REMARK SMILES IDX 25 12 24 13 23 14 27 15 31 16 40 17 30 18 32 19 29 20 34 21
REMARK SMILES IDX 33 22 28 23 35 24 39 25 36 26 41 27 37 28 38 29 43 30 44 31
REMARK SMILES IDX 18 33 17 35 16 36 50 37 15 38 51 39 14 40 13 41 2 42 12 43
REMARK SMILES IDX 3 44 11 45 4 46 1 47 5 48 10 49 6 50 8 51 7 52 9 53
REMARK H PARENT 44 32 18 34
ROOT
ATOM      1  C   UNL     1      24.508   8.206   0.296  1.00  0.00     0.097 A 
ATOM      2  C   UNL     1      24.828   8.159   1.601  1.00  0.00     0.001 A 
ATOM      3  C   UNL     1      26.186   8.489   1.997  1.00  0.00     0.042 A 
ATOM      4  C   UNL     1      27.101   8.968   1.135  1.00  0.00     0.107 A 
ATOM      5  C   UNL     1      26.618   9.271  -0.291  1.00  0.00     0.274 A 
ATOM      6  N   UNL     1      25.390   8.696  -0.647  1.00  0.00    -0.316 N 
ATOM      7  O   UNL     1      27.232  10.031  -1.038  1.00  0.00    -0.267 OA
ATOM      8  C   UNL     1      24.934   8.850  -2.018  1.00  0.00     0.153 C 
ENDROOT
BRANCH   2   9
ATOM      9  C   UNL     1      23.788   7.795   2.585  1.00  0.00    -0.006 A 
ATOM     10  C   UNL     1      22.522   8.162   4.604  1.00  0.00     0.141 A 
ATOM     11  C   UNL     1      23.456   8.642   3.670  1.00  0.00     0.028 A 
ATOM     12  N   UNL     1      21.905   6.961   4.454  1.00  0.00    -0.238 NA
ATOM     13  C   UNL     1      22.216   6.201   3.388  1.00  0.00     0.114 A 
ATOM     14  C   UNL     1      23.154   6.558   2.444  1.00  0.00     0.029 A 
BRANCH  10  15
ATOM     15  N   UNL     1      22.230   8.848   5.811  1.00  0.00    -0.289 N 
ATOM     16  C   UNL     1      22.523   9.223   8.163  1.00  0.00     0.108 A 
ATOM     17  C   UNL     1      22.680   8.320   7.030  1.00  0.00     0.276 C 
ATOM     18  N   UNL     1      22.231  10.569   8.012  1.00  0.00    -0.339 N 
ATOM     19  C   UNL     1      22.639   8.970   9.530  1.00  0.00     0.037 A 
ATOM     20  C   UNL     1      22.091  11.165   6.704  1.00  0.00     0.144 C 
ATOM     21  C   UNL     1      22.109  11.129   9.230  1.00  0.00     0.022 A 
ATOM     22  C   UNL     1      22.360  10.181  10.183  1.00  0.00    -0.026 A 
ATOM     23  C   UNL     1      21.510  10.128   5.751  1.00  0.00     0.149 C 
ATOM     24  C   UNL     1      21.784  12.469   9.746  1.00  0.00     0.061 C 
ATOM     25  C   UNL     1      22.252  10.730  11.549  1.00  0.00     0.044 C 
ATOM     26  C   UNL     1      22.156  12.296  11.281  1.00  0.00    -0.026 C 
ATOM     27  O   UNL     1      23.120   7.180   7.167  1.00  0.00    -0.267 OA
ATOM     28  C   UNL     1      23.517  12.955  11.562  1.00  0.00     0.012 C 
ATOM     29  C   UNL     1      21.085  12.930  12.174  1.00  0.00     0.012 C 
ENDBRANCH  10  15
BRANCH  11  30
ATOM     30  C   UNL     1      24.033  10.029   3.762  1.00  0.00     0.196 C 
BRANCH  30  31
ATOM     31  O   UNL     1      23.290  10.922   2.946  1.00  0.00    -0.392 OA
ATOM     32  H   UNL     1      23.178  10.482   2.084  1.00  0.00     0.211 HD
ENDBRANCH  30  31
ENDBRANCH  11  30
ENDBRANCH   2   9
BRANCH   4  33
ATOM     33  N   UNL     1      28.407   9.275   1.495  1.00  0.00    -0.336 N 
ATOM     34  H   UNL     1      29.118   8.907   0.873  1.00  0.00     0.168 HD
BRANCH  33  35
ATOM     35  C   UNL     1      28.802  10.540   1.986  1.00  0.00     0.130 A 
ATOM     36  C   UNL     1      28.720  10.763   3.355  1.00  0.00     0.049 A 
ATOM     37  N   UNL     1      29.215  11.506   1.143  1.00  0.00    -0.237 NA
ATOM     38  C   UNL     1      28.976  12.041   3.864  1.00  0.00     0.031 A 
ATOM     39  C   UNL     1      29.430  12.742   1.663  1.00  0.00     0.139 A 
ATOM     40  C   UNL     1      29.295  13.092   3.008  1.00  0.00     0.056 A 
BRANCH  40  41
ATOM     41  N   UNL     1      29.385  14.428   3.398  1.00  0.00    -0.364 N 
ATOM     42  C   UNL     1      28.094  15.142   3.715  1.00  0.00     0.098 C 
ATOM     43  C   UNL     1      30.511  14.798   4.285  1.00  0.00     0.138 C 
ATOM     44  C   UNL     1      28.035  15.651   5.186  1.00  0.00     0.141 C 
ATOM     45  C   UNL     1      30.213  14.661   5.799  1.00  0.00     0.138 C 
ATOM     46  N   UNL     1      28.777  14.797   6.134  1.00  0.00    -0.365 N 
ATOM     47  C   UNL     1      26.806  14.397   3.335  1.00  0.00     0.033 C 
BRANCH  46  48
ATOM     48  C   UNL     1      28.163  13.807   6.844  1.00  0.00     0.075 A 
ATOM     49  C   UNL     1      26.813  13.636   7.064  1.00  0.00     0.134 A 
ATOM     50  C   UNL     1      28.752  12.711   7.512  1.00  0.00     0.161 A 
ATOM     51  N   UNL     1      26.680  12.448   7.731  1.00  0.00    -0.274 N 
ATOM     52  N   UNL     1      27.851  11.855   8.015  1.00  0.00    -0.180 NA
ATOM     53  C   UNL     1      25.443  11.794   8.092  1.00  0.00     0.173 C 
ENDBRANCH  46  48
ENDBRANCH  40  41
ENDBRANCH  33  35
ENDBRANCH   4  33
TORSDOF 8
ENDMDL
MODEL 9
REMARK VINA RESULT:    -9.686      4.733      8.871
REMARK INTER + INTRA:         -14.510
REMARK INTER:                 -13.097
REMARK INTRA:                  -1.413
REMARK UNBOUND:                -0.578
REMARK SMILES C[C@H]1CN(c2cnn(C)c2)CCN1c1ccc(Nc2cc(-c3ccnc(N4CCn5c(cc6c5CC(C)(C)C6)C4=O)c3CO)cn(C)c2=O)nc1
REMARK SMILES IDX 45 1 21 2 20 3 19 4 48 5 46 6 49 7 47 8 22 9 26 10 42 11
REMARK SMILES IDX 25 12 24 13 23 14 27 15 31 16 40 17 30 18 32 19 29 20 34 21
REMARK SMILES IDX 33 22 28 23 35 24 39 25 36 26 41 27 37 28 38 29 43 30 44 31
REMARK SMILES IDX 18 33 17 35 16 36 50 37 15 38 51 39 14 40 13 41 2 42 12 43
REMARK SMILES IDX 3 44 11 45 4 46 1 47 5 48 10 49 6 50 8 51 7 52 9 53
REMARK H PARENT 44 32 18 34
ROOT
ATOM      1  C   UNL     1      26.150   8.078   0.614  1.00  0.00     0.097 A 
ATOM      2  C   UNL     1      25.448   9.031   1.254  1.00  0.00     0.001 A 
ATOM      3  C   UNL     1      25.883  10.411   1.137  1.00  0.00     0.042 A 
ATOM      4  C   UNL     1      26.874  10.797   0.312  1.00  0.00     0.107 A 
ATOM      5  C   UNL     1      27.467   9.721  -0.609  1.00  0.00     0.274 A 
ATOM      6  N   UNL     1      27.173   8.396  -0.256  1.00  0.00    -0.316 N 
ATOM      7  O   UNL     1      28.090  10.009  -1.629  1.00  0.00    -0.267 OA
ATOM      8  C   UNL     1      27.799   7.329  -1.020  1.00  0.00     0.153 C 
ENDROOT
BRANCH   2   9
ATOM      9  C   UNL     1      24.253   8.645   2.032  1.00  0.00    -0.006 A 
ATOM     10  C   UNL     1      22.790   8.815   3.941  1.00  0.00     0.141 A 
ATOM     11  C   UNL     1      23.887   9.319   3.223  1.00  0.00     0.028 A 
ATOM     12  N   UNL     1      22.059   7.761   3.494  1.00  0.00    -0.238 NA
ATOM     13  C   UNL     1      22.413   7.171   2.338  1.00  0.00     0.114 A 
ATOM     14  C   UNL     1      23.501   7.557   1.586  1.00  0.00     0.029 A 
BRANCH  10  15
ATOM     15  N   UNL     1      22.428   9.305   5.222  1.00  0.00    -0.289 N 
ATOM     16  C   UNL     1      22.654   9.370   7.610  1.00  0.00     0.108 A 
ATOM     17  C   UNL     1      22.895   8.646   6.369  1.00  0.00     0.276 C 
ATOM     18  N   UNL     1      22.266  10.700   7.638  1.00  0.00    -0.339 N 
ATOM     19  C   UNL     1      22.765   8.939   8.932  1.00  0.00     0.037 A 
ATOM     20  C   UNL     1      22.104  11.461   6.421  1.00  0.00     0.144 C 
ATOM     21  C   UNL     1      22.084  11.076   8.918  1.00  0.00     0.022 A 
ATOM     22  C   UNL     1      22.388  10.025   9.738  1.00  0.00    -0.026 A 
ATOM     23  C   UNL     1      21.617  10.527   5.319  1.00  0.00     0.149 C 
ATOM     24  C   UNL     1      21.652  12.306   9.604  1.00  0.00     0.061 C 
ATOM     25  C   UNL     1      22.217  10.370  11.163  1.00  0.00     0.044 C 
ATOM     26  C   UNL     1      22.010  11.948  11.110  1.00  0.00    -0.026 C 
ATOM     27  O   UNL     1      23.416   7.532   6.360  1.00  0.00    -0.267 OA
ATOM     28  C   UNL     1      23.314  12.656  11.514  1.00  0.00     0.012 C 
ATOM     29  C   UNL     1      20.881  12.375  12.053  1.00  0.00     0.012 C 
ENDBRANCH  10  15
BRANCH  11  30
ATOM     30  C   UNL     1      24.609  10.570   3.645  1.00  0.00     0.196 C 
BRANCH  30  31
ATOM     31  O   UNL     1      23.899  11.718   3.202  1.00  0.00    -0.392 OA
ATOM     32  H   UNL     1      24.322  12.001   2.371  1.00  0.00     0.211 HD
ENDBRANCH  30  31
ENDBRANCH  11  30
ENDBRANCH   2   9
BRANCH   4  33
ATOM     33  N   UNL     1      27.310  12.111   0.200  1.00  0.00    -0.336 N 
ATOM     34  H   UNL     1      26.901  12.631  -0.569  1.00  0.00     0.168 HD
BRANCH  33  35
ATOM     35  C   UNL     1      27.505  12.964   1.310  1.00  0.00     0.130 A 
ATOM     36  C   UNL     1      28.422  12.573   2.279  1.00  0.00     0.049 A 
ATOM     37  N   UNL     1      26.798  14.104   1.434  1.00  0.00    -0.237 NA
ATOM     38  C   UNL     1      28.547  13.323   3.454  1.00  0.00     0.031 A 
ATOM     39  C   UNL     1      26.922  14.795   2.596  1.00  0.00     0.139 A 
ATOM     40  C   UNL     1      27.749  14.445   3.665  1.00  0.00     0.056 A 
BRANCH  40  41
ATOM     41  N   UNL     1      27.670  15.142   4.871  1.00  0.00    -0.364 N 
ATOM     42  C   UNL     1      26.823  14.538   5.963  1.00  0.00     0.098 C 
ATOM     43  C   UNL     1      28.910  15.787   5.359  1.00  0.00     0.138 C 
ATOM     44  C   UNL     1      27.643  14.204   7.245  1.00  0.00     0.141 C 
ATOM     45  C   UNL     1      29.799  14.887   6.254  1.00  0.00     0.138 C 
ATOM     46  N   UNL     1      29.043  13.831   6.967  1.00  0.00    -0.365 N 
ATOM     47  C   UNL     1      25.939  13.352   5.546  1.00  0.00     0.033 C 
BRANCH  46  48
ATOM     48  C   UNL     1      29.429  12.530   6.830  1.00  0.00     0.075 A 
ATOM     49  C   UNL     1      30.572  12.045   6.231  1.00  0.00     0.134 A 
ATOM     50  C   UNL     1      28.767  11.366   7.279  1.00  0.00     0.161 A 
ATOM     51  N   UNL     1      30.571  10.692   6.440  1.00  0.00    -0.274 N 
ATOM     52  N   UNL     1      29.480  10.247   7.085  1.00  0.00    -0.180 NA
ATOM     53  C   UNL     1      31.618   9.762   6.083  1.00  0.00     0.173 C 
ENDBRANCH  46  48
ENDBRANCH  40  41
ENDBRANCH  33  35
ENDBRANCH   4  33
TORSDOF 8
ENDMDL
