MODEL 1
REMARK VINA RESULT:   -12.453      0.000      0.000
REMARK INTER + INTRA:         -17.801
REMARK INTER:                 -17.185
REMARK INTRA:                  -0.616
REMARK UNBOUND:                -0.616
REMARK SMILES C[C@@H]1CN(c2ccc(Nc3cc(-c4ccnc(N5CCn6c(cc7c6CC(C)(C)C7)C5=O)c4CO)cn(C)c3=O)nc2)C[C@H](C)C1(F)F
REMARK SMILES IDX 36 1 12 2 11 3 10 4 39 5 37 6 40 7 38 8 13 9 17 10 33 11
REMARK SMILES IDX 16 12 15 13 14 14 18 15 22 16 31 17 21 18 23 19 20 20 25 21
REMARK SMILES IDX 24 22 19 23 26 24 30 25 27 26 32 27 28 28 29 29 34 30 35 31
REMARK SMILES IDX 9 33 8 35 7 36 41 37 6 38 42 39 5 40 4 41 3 42 43 43 2 44
REMARK SMILES IDX 44 45 46 46 1 47 45 48 47 49 48 50
REMARK H PARENT 35 32 9 34
ROOT
ATOM      1  C   UNL     1      20.141   5.534   2.687  1.00  0.00     0.097 A 
ATOM      2  C   UNL     1      21.267   6.032   2.142  1.00  0.00     0.001 A 
ATOM      3  C   UNL     1      21.450   5.908   0.706  1.00  0.00     0.042 A 
ATOM      4  C   UNL     1      20.506   5.390  -0.094  1.00  0.00     0.107 A 
ATOM      5  C   UNL     1      19.200   4.949   0.530  1.00  0.00     0.274 A 
ATOM      6  N   UNL     1      19.130   4.988   1.918  1.00  0.00    -0.316 N 
ATOM      7  O   UNL     1      18.293   4.561  -0.211  1.00  0.00    -0.267 OA
ATOM      8  C   UNL     1      17.919   4.528   2.581  1.00  0.00     0.153 C 
ENDROOT
BRANCH   2   9
ATOM      9  C   UNL     1      22.279   6.645   3.039  1.00  0.00    -0.006 A 
ATOM     10  C   UNL     1      22.984   8.002   4.901  1.00  0.00     0.141 A 
ATOM     11  C   UNL     1      21.964   7.629   4.011  1.00  0.00     0.028 A 
ATOM     12  N   UNL     1      24.278   7.622   4.722  1.00  0.00    -0.238 NA
ATOM     13  C   UNL     1      24.557   6.746   3.740  1.00  0.00     0.114 A 
ATOM     14  C   UNL     1      23.600   6.210   2.907  1.00  0.00     0.029 A 
BRANCH  10  15
ATOM     15  N   UNL     1      22.741   8.779   6.067  1.00  0.00    -0.289 N 
ATOM     16  C   UNL     1      22.603   9.053   8.456  1.00  0.00     0.108 A 
ATOM     17  C   UNL     1      22.677   8.143   7.322  1.00  0.00     0.276 C 
ATOM     18  N   UNL     1      22.470  10.424   8.314  1.00  0.00    -0.339 N 
ATOM     19  C   UNL     1      22.673   8.779   9.821  1.00  0.00     0.037 A 
ATOM     20  C   UNL     1      22.366  11.043   7.011  1.00  0.00     0.144 C 
ATOM     21  C   UNL     1      22.490  10.992   9.535  1.00  0.00     0.022 A 
ATOM     22  C   UNL     1      22.610  10.016  10.482  1.00  0.00    -0.026 A 
ATOM     23  C   UNL     1      23.135  10.194   6.002  1.00  0.00     0.149 C 
ATOM     24  C   UNL     1      22.435  12.372  10.048  1.00  0.00     0.061 C 
ATOM     25  C   UNL     1      22.656  10.568  11.850  1.00  0.00     0.044 C 
ATOM     26  C   UNL     1      22.367  12.118  11.618  1.00  0.00    -0.026 C 
ATOM     27  O   UNL     1      22.715   6.923   7.485  1.00  0.00    -0.267 OA
ATOM     28  C   UNL     1      23.418  12.967  12.344  1.00  0.00     0.012 C 
ATOM     29  C   UNL     1      20.970  12.476  12.150  1.00  0.00     0.012 C 
ENDBRANCH  10  15
BRANCH  11  30
ATOM     30  C   UNL     1      20.593   8.271   4.028  1.00  0.00     0.196 C 
BRANCH  30  31
ATOM     31  O   UNL     1      19.793   7.803   5.110  1.00  0.00    -0.392 OA
ATOM     32  H   UNL     1      20.358   7.837   5.901  1.00  0.00     0.211 HD
ENDBRANCH  30  31
ENDBRANCH  11  30
ENDBRANCH   2   9
BRANCH   4  33
ATOM     33  N   UNL     1      20.615   5.247  -1.479  1.00  0.00    -0.336 N 
ATOM     34  H   UNL     1      20.366   4.275  -1.703  1.00  0.00     0.168 HD
BRANCH  33  35
ATOM     35  C   UNL     1      21.899   5.443  -2.056  1.00  0.00     0.130 A 
ATOM     36  C   UNL     1      22.465   4.431  -2.826  1.00  0.00     0.049 A 
ATOM     37  N   UNL     1      22.573   6.575  -1.787  1.00  0.00    -0.237 NA
ATOM     38  C   UNL     1      23.737   4.606  -3.375  1.00  0.00     0.031 A 
ATOM     39  C   UNL     1      23.810   6.712  -2.341  1.00  0.00     0.139 A 
ATOM     40  C   UNL     1      24.455   5.790  -3.177  1.00  0.00     0.055 A 
BRANCH  40  41
ATOM     41  N   UNL     1      25.723   6.016  -3.721  1.00  0.00    -0.369 N 
ATOM     42  C   UNL     1      26.448   4.876  -4.321  1.00  0.00     0.126 C 
ATOM     43  C   UNL     1      26.625   7.020  -3.126  1.00  0.00     0.126 C 
ATOM     44  C   UNL     1      27.260   4.159  -3.241  1.00  0.00     0.076 C 
ATOM     45  C   UNL     1      27.430   6.381  -1.995  1.00  0.00     0.076 C 
ATOM     46  C   UNL     1      28.175   5.171  -2.552  1.00  0.00     0.256 C 
ATOM     47  C   UNL     1      28.065   3.004  -3.835  1.00  0.00     0.016 C 
ATOM     48  C   UNL     1      28.393   7.392  -1.373  1.00  0.00     0.016 C 
ATOM     49  F   UNL     1      29.129   5.592  -3.429  1.00  0.00    -0.206 F 
ATOM     50  F   UNL     1      28.837   4.554  -1.533  1.00  0.00    -0.206 F 
ENDBRANCH  40  41
ENDBRANCH  33  35
ENDBRANCH   4  33
TORSDOF 7
ENDMDL
MODEL 2
REMARK VINA RESULT:   -12.387      2.285      3.060
REMARK INTER + INTRA:         -17.710
REMARK INTER:                 -17.948
REMARK INTRA:                   0.237
REMARK UNBOUND:                -0.616
REMARK SMILES C[C@@H]1CN(c2ccc(Nc3cc(-c4ccnc(N5CCn6c(cc7c6CC(C)(C)C7)C5=O)c4CO)cn(C)c3=O)nc2)C[C@H](C)C1(F)F
REMARK SMILES IDX 36 1 12 2 11 3 10 4 39 5 37 6 40 7 38 8 13 9 17 10 33 11
REMARK SMILES IDX 16 12 15 13 14 14 18 15 22 16 31 17 21 18 23 19 20 20 25 21
REMARK SMILES IDX 24 22 19 23 26 24 30 25 27 26 32 27 28 28 29 29 34 30 35 31
REMARK SMILES IDX 9 33 8 35 7 36 41 37 6 38 42 39 5 40 4 41 3 42 43 43 2 44
REMARK SMILES IDX 44 45 46 46 1 47 45 48 47 49 48 50
REMARK H PARENT 35 32 9 34
ROOT
ATOM      1  C   UNL     1      20.066   5.582   2.641  1.00  0.00     0.097 A 
ATOM      2  C   UNL     1      21.256   5.920   2.109  1.00  0.00     0.001 A 
ATOM      3  C   UNL     1      21.504   5.598   0.715  1.00  0.00     0.042 A 
ATOM      4  C   UNL     1      20.564   5.053  -0.072  1.00  0.00     0.107 A 
ATOM      5  C   UNL     1      19.195   4.794   0.519  1.00  0.00     0.274 A 
ATOM      6  N   UNL     1      19.056   5.018   1.885  1.00  0.00    -0.316 N 
ATOM      7  O   UNL     1      18.301   4.382  -0.223  1.00  0.00    -0.267 OA
ATOM      8  C   UNL     1      17.778   4.739   2.522  1.00  0.00     0.153 C 
ENDROOT
BRANCH   2   9
ATOM      9  C   UNL     1      22.266   6.567   2.985  1.00  0.00    -0.006 A 
ATOM     10  C   UNL     1      22.965   7.957   4.826  1.00  0.00     0.141 A 
ATOM     11  C   UNL     1      21.941   7.549   3.956  1.00  0.00     0.028 A 
ATOM     12  N   UNL     1      24.266   7.611   4.626  1.00  0.00    -0.238 NA
ATOM     13  C   UNL     1      24.552   6.737   3.645  1.00  0.00     0.114 A 
ATOM     14  C   UNL     1      23.596   6.168   2.832  1.00  0.00     0.029 A 
BRANCH  10  15
ATOM     15  N   UNL     1      22.721   8.735   5.990  1.00  0.00    -0.289 N 
ATOM     16  C   UNL     1      22.584   9.011   8.379  1.00  0.00     0.108 A 
ATOM     17  C   UNL     1      22.659   8.100   7.246  1.00  0.00     0.276 C 
ATOM     18  N   UNL     1      22.447  10.382   8.235  1.00  0.00    -0.339 N 
ATOM     19  C   UNL     1      22.655   8.740   9.745  1.00  0.00     0.037 A 
ATOM     20  C   UNL     1      22.341  10.999   6.931  1.00  0.00     0.144 C 
ATOM     21  C   UNL     1      22.466  10.952   9.455  1.00  0.00     0.022 A 
ATOM     22  C   UNL     1      22.589   9.977  10.403  1.00  0.00    -0.026 A 
ATOM     23  C   UNL     1      23.111  10.150   5.924  1.00  0.00     0.149 C 
ATOM     24  C   UNL     1      22.409  12.332   9.966  1.00  0.00     0.061 C 
ATOM     25  C   UNL     1      22.634  10.532  11.771  1.00  0.00     0.044 C 
ATOM     26  C   UNL     1      22.341  12.081  11.537  1.00  0.00    -0.026 C 
ATOM     27  O   UNL     1      22.700   6.881   7.411  1.00  0.00    -0.267 OA
ATOM     28  C   UNL     1      23.390  12.933  12.261  1.00  0.00     0.012 C 
ATOM     29  C   UNL     1      20.944  12.436  12.068  1.00  0.00     0.012 C 
ENDBRANCH  10  15
BRANCH  11  30
ATOM     30  C   UNL     1      20.552   8.153   3.993  1.00  0.00     0.196 C 
BRANCH  30  31
ATOM     31  O   UNL     1      19.814   7.734   5.137  1.00  0.00    -0.392 OA
ATOM     32  H   UNL     1      18.901   8.033   4.997  1.00  0.00     0.211 HD
ENDBRANCH  30  31
ENDBRANCH  11  30
ENDBRANCH   2   9
BRANCH   4  33
ATOM     33  N   UNL     1      20.734   4.724  -1.419  1.00  0.00    -0.336 N 
ATOM     34  H   UNL     1      21.118   3.770  -1.450  1.00  0.00     0.168 HD
BRANCH  33  35
ATOM     35  C   UNL     1      21.644   5.514  -2.173  1.00  0.00     0.130 A 
ATOM     36  C   UNL     1      21.833   5.237  -3.524  1.00  0.00     0.049 A 
ATOM     37  N   UNL     1      22.357   6.468  -1.549  1.00  0.00    -0.237 NA
ATOM     38  C   UNL     1      22.744   5.994  -4.266  1.00  0.00     0.031 A 
ATOM     39  C   UNL     1      23.233   7.187  -2.305  1.00  0.00     0.139 A 
ATOM     40  C   UNL     1      23.466   7.038  -3.679  1.00  0.00     0.055 A 
BRANCH  40  41
ATOM     41  N   UNL     1      24.374   7.832  -4.386  1.00  0.00    -0.369 N 
ATOM     42  C   UNL     1      23.967   9.199  -4.773  1.00  0.00     0.126 C 
ATOM     43  C   UNL     1      25.312   7.220  -5.346  1.00  0.00     0.126 C 
ATOM     44  C   UNL     1      23.255   9.159  -6.126  1.00  0.00     0.076 C 
ATOM     45  C   UNL     1      24.641   7.098  -6.714  1.00  0.00     0.076 C 
ATOM     46  C   UNL     1      24.166   8.481  -7.148  1.00  0.00     0.256 C 
ATOM     47  C   UNL     1      22.865  10.564  -6.582  1.00  0.00     0.016 C 
ATOM     48  C   UNL     1      25.598   6.487  -7.739  1.00  0.00     0.016 C 
ATOM     49  F   UNL     1      25.247   9.274  -7.390  1.00  0.00    -0.206 F 
ATOM     50  F   UNL     1      23.502   8.368  -8.333  1.00  0.00    -0.206 F 
ENDBRANCH  40  41
ENDBRANCH  33  35
ENDBRANCH   4  33
TORSDOF 7
ENDMDL
MODEL 3
REMARK VINA RESULT:   -12.243      1.124      1.544
REMARK INTER + INTRA:         -17.512
REMARK INTER:                 -17.536
REMARK INTRA:                   0.024
REMARK UNBOUND:                -0.616
REMARK SMILES C[C@@H]1CN(c2ccc(Nc3cc(-c4ccnc(N5CCn6c(cc7c6CC(C)(C)C7)C5=O)c4CO)cn(C)c3=O)nc2)C[C@H](C)C1(F)F
REMARK SMILES IDX 36 1 12 2 11 3 10 4 39 5 37 6 40 7 38 8 13 9 17 10 33 11
REMARK SMILES IDX 16 12 15 13 14 14 18 15 22 16 31 17 21 18 23 19 20 20 25 21
REMARK SMILES IDX 24 22 19 23 26 24 30 25 27 26 32 27 28 28 29 29 34 30 35 31
REMARK SMILES IDX 9 33 8 35 7 36 41 37 6 38 42 39 5 40 4 41 3 42 43 43 2 44
REMARK SMILES IDX 44 45 46 46 1 47 45 48 47 49 48 50
REMARK H PARENT 35 32 9 34
ROOT
ATOM      1  C   UNL     1      19.915   5.427   2.880  1.00  0.00     0.097 A 
ATOM      2  C   UNL     1      20.976   5.960   2.246  1.00  0.00     0.001 A 
ATOM      3  C   UNL     1      21.058   5.820   0.802  1.00  0.00     0.042 A 
ATOM      4  C   UNL     1      20.080   5.251   0.081  1.00  0.00     0.107 A 
ATOM      5  C   UNL     1      18.842   4.769   0.807  1.00  0.00     0.274 A 
ATOM      6  N   UNL     1      18.873   4.828   2.196  1.00  0.00    -0.316 N 
ATOM      7  O   UNL     1      17.901   4.332   0.141  1.00  0.00    -0.267 OA
ATOM      8  C   UNL     1      17.734   4.331   2.952  1.00  0.00     0.153 C 
ENDROOT
BRANCH   2   9
ATOM      9  C   UNL     1      22.025   6.629   3.057  1.00  0.00    -0.006 A 
ATOM     10  C   UNL     1      22.809   8.037   4.849  1.00  0.00     0.141 A 
ATOM     11  C   UNL     1      21.741   7.608   4.043  1.00  0.00     0.028 A 
ATOM     12  N   UNL     1      24.101   7.714   4.572  1.00  0.00    -0.238 NA
ATOM     13  C   UNL     1      24.343   6.841   3.579  1.00  0.00     0.114 A 
ATOM     14  C   UNL     1      23.350   6.252   2.826  1.00  0.00     0.029 A 
BRANCH  10  15
ATOM     15  N   UNL     1      22.621   8.815   6.024  1.00  0.00    -0.289 N 
ATOM     16  C   UNL     1      22.563   9.082   8.417  1.00  0.00     0.108 A 
ATOM     17  C   UNL     1      22.580   8.175   7.278  1.00  0.00     0.276 C 
ATOM     18  N   UNL     1      22.459  10.456   8.284  1.00  0.00    -0.339 N 
ATOM     19  C   UNL     1      22.668   8.801   9.779  1.00  0.00     0.037 A 
ATOM     20  C   UNL     1      22.331  11.083   6.987  1.00  0.00     0.144 C 
ATOM     21  C   UNL     1      22.531  11.019   9.506  1.00  0.00     0.022 A 
ATOM     22  C   UNL     1      22.656  10.036  10.445  1.00  0.00    -0.026 A 
ATOM     23  C   UNL     1      23.047  10.219   5.952  1.00  0.00     0.149 C 
ATOM     24  C   UNL     1      22.527  12.398  10.025  1.00  0.00     0.061 C 
ATOM     25  C   UNL     1      22.757  10.582  11.814  1.00  0.00     0.044 C 
ATOM     26  C   UNL     1      22.500  12.139  11.596  1.00  0.00    -0.026 C 
ATOM     27  O   UNL     1      22.592   6.954   7.436  1.00  0.00    -0.267 OA
ATOM     28  C   UNL     1      23.594  12.959  12.291  1.00  0.00     0.012 C 
ATOM     29  C   UNL     1      21.130  12.530  12.171  1.00  0.00     0.012 C 
ENDBRANCH  10  15
BRANCH  11  30
ATOM     30  C   UNL     1      20.347   8.188   4.162  1.00  0.00     0.196 C 
BRANCH  30  31
ATOM     31  O   UNL     1      19.654   7.691   5.303  1.00  0.00    -0.392 OA
ATOM     32  H   UNL     1      19.143   6.923   4.999  1.00  0.00     0.211 HD
ENDBRANCH  30  31
ENDBRANCH  11  30
ENDBRANCH   2   9
BRANCH   4  33
ATOM     33  N   UNL     1      20.092   5.090  -1.306  1.00  0.00    -0.336 N 
ATOM     34  H   UNL     1      19.788   4.127  -1.500  1.00  0.00     0.168 HD
BRANCH  33  35
ATOM     35  C   UNL     1      21.344   5.222  -1.966  1.00  0.00     0.130 A 
ATOM     36  C   UNL     1      22.330   6.031  -1.406  1.00  0.00     0.049 A 
ATOM     37  N   UNL     1      21.526   4.620  -3.154  1.00  0.00    -0.237 NA
ATOM     38  C   UNL     1      23.554   6.186  -2.062  1.00  0.00     0.031 A 
ATOM     39  C   UNL     1      22.733   4.792  -3.762  1.00  0.00     0.139 A 
ATOM     40  C   UNL     1      23.817   5.531  -3.270  1.00  0.00     0.055 A 
BRANCH  40  41
ATOM     41  N   UNL     1      25.033   5.643  -3.951  1.00  0.00    -0.369 N 
ATOM     42  C   UNL     1      25.097   5.205  -5.361  1.00  0.00     0.126 C 
ATOM     43  C   UNL     1      26.310   5.462  -3.236  1.00  0.00     0.126 C 
ATOM     44  C   UNL     1      25.432   3.713  -5.419  1.00  0.00     0.076 C 
ATOM     45  C   UNL     1      26.678   3.979  -3.207  1.00  0.00     0.076 C 
ATOM     46  C   UNL     1      26.723   3.462  -4.642  1.00  0.00     0.256 C 
ATOM     47  C   UNL     1      25.557   3.235  -6.865  1.00  0.00     0.016 C 
ATOM     48  C   UNL     1      28.011   3.761  -2.492  1.00  0.00     0.016 C 
ATOM     49  F   UNL     1      27.768   4.040  -5.298  1.00  0.00    -0.206 F 
ATOM     50  F   UNL     1      26.978   2.124  -4.620  1.00  0.00    -0.206 F 
ENDBRANCH  40  41
ENDBRANCH  33  35
ENDBRANCH   4  33
TORSDOF 7
ENDMDL
MODEL 4
REMARK VINA RESULT:   -12.012      1.683      2.678
REMARK INTER + INTRA:         -17.193
REMARK INTER:                 -17.837
REMARK INTRA:                   0.645
REMARK UNBOUND:                -0.616
REMARK SMILES C[C@@H]1CN(c2ccc(Nc3cc(-c4ccnc(N5CCn6c(cc7c6CC(C)(C)C7)C5=O)c4CO)cn(C)c3=O)nc2)C[C@H](C)C1(F)F
REMARK SMILES IDX 36 1 12 2 11 3 10 4 39 5 37 6 40 7 38 8 13 9 17 10 33 11
REMARK SMILES IDX 16 12 15 13 14 14 18 15 22 16 31 17 21 18 23 19 20 20 25 21
REMARK SMILES IDX 24 22 19 23 26 24 30 25 27 26 32 27 28 28 29 29 34 30 35 31
REMARK SMILES IDX 9 33 8 35 7 36 41 37 6 38 42 39 5 40 4 41 3 42 43 43 2 44
REMARK SMILES IDX 44 45 46 46 1 47 45 48 47 49 48 50
REMARK H PARENT 35 32 9 34
ROOT
ATOM      1  C   UNL     1      19.738   5.443   3.252  1.00  0.00     0.097 A 
ATOM      2  C   UNL     1      20.815   5.800   2.526  1.00  0.00     0.001 A 
ATOM      3  C   UNL     1      20.788   5.567   1.093  1.00  0.00     0.042 A 
ATOM      4  C   UNL     1      19.703   5.087   0.466  1.00  0.00     0.107 A 
ATOM      5  C   UNL     1      18.464   4.808   1.289  1.00  0.00     0.274 A 
ATOM      6  N   UNL     1      18.589   4.943   2.667  1.00  0.00    -0.316 N 
ATOM      7  O   UNL     1      17.436   4.457   0.706  1.00  0.00    -0.267 OA
ATOM      8  C   UNL     1      17.448   4.639   3.517  1.00  0.00     0.153 C 
ENDROOT
BRANCH   2   9
ATOM      9  C   UNL     1      21.987   6.376   3.233  1.00  0.00    -0.006 A 
ATOM     10  C   UNL     1      23.052   7.686   4.953  1.00  0.00     0.141 A 
ATOM     11  C   UNL     1      21.878   7.350   4.258  1.00  0.00     0.028 A 
ATOM     12  N   UNL     1      24.282   7.280   4.537  1.00  0.00    -0.238 NA
ATOM     13  C   UNL     1      24.357   6.415   3.511  1.00  0.00     0.114 A 
ATOM     14  C   UNL     1      23.251   5.914   2.858  1.00  0.00     0.029 A 
BRANCH  10  15
ATOM     15  N   UNL     1      23.043   8.449   6.153  1.00  0.00    -0.289 N 
ATOM     16  C   UNL     1      22.744  10.506   7.369  1.00  0.00     0.108 A 
ATOM     17  C   UNL     1      22.921   9.850   6.082  1.00  0.00     0.276 C 
ATOM     18  N   UNL     1      22.823   9.831   8.576  1.00  0.00    -0.339 N 
ATOM     19  C   UNL     1      22.452  11.839   7.655  1.00  0.00     0.037 A 
ATOM     20  C   UNL     1      23.119   8.416   8.633  1.00  0.00     0.144 C 
ATOM     21  C   UNL     1      22.557  10.693   9.576  1.00  0.00     0.022 A 
ATOM     22  C   UNL     1      22.328  11.932   9.050  1.00  0.00    -0.026 A 
ATOM     23  C   UNL     1      22.588   7.753   7.365  1.00  0.00     0.149 C 
ATOM     24  C   UNL     1      22.444  10.593  11.041  1.00  0.00     0.061 C 
ATOM     25  C   UNL     1      22.013  12.930  10.091  1.00  0.00     0.044 C 
ATOM     26  C   UNL     1      22.250  12.121  11.444  1.00  0.00    -0.026 C 
ATOM     27  O   UNL     1      22.924  10.495   5.033  1.00  0.00    -0.267 OA
ATOM     28  C   UNL     1      21.043  12.281  12.375  1.00  0.00     0.012 C 
ATOM     29  C   UNL     1      23.510  12.643  12.152  1.00  0.00     0.012 C 
ENDBRANCH  10  15
BRANCH  11  30
ATOM     30  C   UNL     1      20.549   8.022   4.531  1.00  0.00     0.196 C 
BRANCH  30  31
ATOM     31  O   UNL     1      19.876   7.448   5.648  1.00  0.00    -0.392 OA
ATOM     32  H   UNL     1      18.926   7.572   5.487  1.00  0.00     0.211 HD
ENDBRANCH  30  31
ENDBRANCH  11  30
ENDBRANCH   2   9
BRANCH   4  33
ATOM     33  N   UNL     1      19.608   4.845  -0.906  1.00  0.00    -0.336 N 
ATOM     34  H   UNL     1      19.341   3.858  -1.020  1.00  0.00     0.168 HD
BRANCH  33  35
ATOM     35  C   UNL     1      20.790   5.000  -1.678  1.00  0.00     0.130 A 
ATOM     36  C   UNL     1      20.801   4.579  -3.006  1.00  0.00     0.049 A 
ATOM     37  N   UNL     1      21.898   5.487  -1.092  1.00  0.00    -0.237 NA
ATOM     38  C   UNL     1      21.968   4.706  -3.764  1.00  0.00     0.031 A 
ATOM     39  C   UNL     1      23.015   5.599  -1.863  1.00  0.00     0.139 A 
ATOM     40  C   UNL     1      23.129   5.263  -3.219  1.00  0.00     0.055 A 
BRANCH  40  41
ATOM     41  N   UNL     1      24.312   5.425  -3.946  1.00  0.00    -0.369 N 
ATOM     42  C   UNL     1      25.465   6.076  -3.286  1.00  0.00     0.126 C 
ATOM     43  C   UNL     1      24.269   5.673  -5.399  1.00  0.00     0.126 C 
ATOM     44  C   UNL     1      25.375   7.591  -3.476  1.00  0.00     0.076 C 
ATOM     45  C   UNL     1      24.124   7.172  -5.661  1.00  0.00     0.076 C 
ATOM     46  C   UNL     1      25.272   7.900  -4.969  1.00  0.00     0.256 C 
ATOM     47  C   UNL     1      26.579   8.293  -2.850  1.00  0.00     0.016 C 
ATOM     48  C   UNL     1      24.100   7.464  -7.162  1.00  0.00     0.016 C 
ATOM     49  F   UNL     1      26.445   7.579  -5.582  1.00  0.00    -0.206 F 
ATOM     50  F   UNL     1      25.108   9.242  -5.137  1.00  0.00    -0.206 F 
ENDBRANCH  40  41
ENDBRANCH  33  35
ENDBRANCH   4  33
TORSDOF 7
ENDMDL
MODEL 5
REMARK VINA RESULT:   -11.522      2.771      3.696
REMARK INTER + INTRA:         -16.515
REMARK INTER:                 -16.288
REMARK INTRA:                  -0.228
REMARK UNBOUND:                -0.616
REMARK SMILES C[C@@H]1CN(c2ccc(Nc3cc(-c4ccnc(N5CCn6c(cc7c6CC(C)(C)C7)C5=O)c4CO)cn(C)c3=O)nc2)C[C@H](C)C1(F)F
REMARK SMILES IDX 36 1 12 2 11 3 10 4 39 5 37 6 40 7 38 8 13 9 17 10 33 11
REMARK SMILES IDX 16 12 15 13 14 14 18 15 22 16 31 17 21 18 23 19 20 20 25 21
REMARK SMILES IDX 24 22 19 23 26 24 30 25 27 26 32 27 28 28 29 29 34 30 35 31
REMARK SMILES IDX 9 33 8 35 7 36 41 37 6 38 42 39 5 40 4 41 3 42 43 43 2 44
REMARK SMILES IDX 44 45 46 46 1 47 45 48 47 49 48 50
REMARK H PARENT 35 32 9 34
ROOT
ATOM      1  C   UNL     1      20.045   5.702   3.418  1.00  0.00     0.097 A 
ATOM      2  C   UNL     1      21.020   5.919   2.516  1.00  0.00     0.001 A 
ATOM      3  C   UNL     1      20.776   5.543   1.133  1.00  0.00     0.042 A 
ATOM      4  C   UNL     1      19.592   5.067   0.720  1.00  0.00     0.107 A 
ATOM      5  C   UNL     1      18.473   4.947   1.732  1.00  0.00     0.274 A 
ATOM      6  N   UNL     1      18.802   5.214   3.057  1.00  0.00    -0.316 N 
ATOM      7  O   UNL     1      17.357   4.600   1.340  1.00  0.00    -0.267 OA
ATOM      8  C   UNL     1      17.784   5.067   4.085  1.00  0.00     0.153 C 
ENDROOT
BRANCH   2   9
ATOM      9  C   UNL     1      22.307   6.492   2.985  1.00  0.00    -0.006 A 
ATOM     10  C   UNL     1      23.666   8.151   4.086  1.00  0.00     0.141 A 
ATOM     11  C   UNL     1      22.426   7.797   3.530  1.00  0.00     0.028 A 
ATOM     12  N   UNL     1      24.779   7.384   3.922  1.00  0.00    -0.238 NA
ATOM     13  C   UNL     1      24.647   6.184   3.330  1.00  0.00     0.114 A 
ATOM     14  C   UNL     1      23.443   5.686   2.883  1.00  0.00     0.029 A 
BRANCH  10  15
ATOM     15  N   UNL     1      23.849   9.316   4.880  1.00  0.00    -0.289 N 
ATOM     16  C   UNL     1      23.767  10.502   6.975  1.00  0.00     0.108 A 
ATOM     17  C   UNL     1      23.368   9.333   6.204  1.00  0.00     0.276 C 
ATOM     18  N   UNL     1      24.446  11.574   6.420  1.00  0.00    -0.339 N 
ATOM     19  C   UNL     1      23.598  10.772   8.332  1.00  0.00     0.037 A 
ATOM     20  C   UNL     1      24.782  11.611   5.013  1.00  0.00     0.144 C 
ATOM     21  C   UNL     1      24.723  12.464   7.392  1.00  0.00     0.022 A 
ATOM     22  C   UNL     1      24.216  12.008   8.575  1.00  0.00    -0.026 A 
ATOM     23  C   UNL     1      24.981  10.180   4.519  1.00  0.00     0.149 C 
ATOM     24  C   UNL     1      25.438  13.750   7.460  1.00  0.00     0.061 C 
ATOM     25  C   UNL     1      24.497  12.929   9.694  1.00  0.00     0.044 C 
ATOM     26  C   UNL     1      25.155  14.185   8.965  1.00  0.00    -0.026 C 
ATOM     27  O   UNL     1      22.696   8.435   6.711  1.00  0.00    -0.267 OA
ATOM     28  C   UNL     1      26.463  14.576   9.664  1.00  0.00     0.012 C 
ATOM     29  C   UNL     1      24.187  15.377   8.997  1.00  0.00     0.012 C 
ENDBRANCH  10  15
BRANCH  11  30
ATOM     30  C   UNL     1      21.262   8.763   3.453  1.00  0.00     0.196 C 
BRANCH  30  31
ATOM     31  O   UNL     1      20.466   8.741   4.634  1.00  0.00    -0.392 OA
ATOM     32  H   UNL     1      20.567   7.853   5.015  1.00  0.00     0.211 HD
ENDBRANCH  30  31
ENDBRANCH  11  30
ENDBRANCH   2   9
BRANCH   4  33
ATOM     33  N   UNL     1      19.289   4.693  -0.591  1.00  0.00    -0.336 N 
ATOM     34  H   UNL     1      19.141   3.675  -0.588  1.00  0.00     0.168 HD
BRANCH  33  35
ATOM     35  C   UNL     1      20.284   4.919  -1.579  1.00  0.00     0.130 A 
ATOM     36  C   UNL     1      20.148   4.331  -2.835  1.00  0.00     0.049 A 
ATOM     37  N   UNL     1      21.374   5.639  -1.261  1.00  0.00    -0.237 NA
ATOM     38  C   UNL     1      21.136   4.528  -3.803  1.00  0.00     0.031 A 
ATOM     39  C   UNL     1      22.314   5.812  -2.231  1.00  0.00     0.139 A 
ATOM     40  C   UNL     1      22.259   5.320  -3.542  1.00  0.00     0.055 A 
BRANCH  40  41
ATOM     41  N   UNL     1      23.262   5.558  -4.487  1.00  0.00    -0.369 N 
ATOM     42  C   UNL     1      24.044   6.809  -4.388  1.00  0.00     0.126 C 
ATOM     43  C   UNL     1      23.108   5.087  -5.876  1.00  0.00     0.126 C 
ATOM     44  C   UNL     1      23.331   7.922  -5.158  1.00  0.00     0.076 C 
ATOM     45  C   UNL     1      22.350   6.133  -6.693  1.00  0.00     0.076 C 
ATOM     46  C   UNL     1      23.096   7.460  -6.596  1.00  0.00     0.256 C 
ATOM     47  C   UNL     1      24.138   9.218  -5.121  1.00  0.00     0.016 C 
ATOM     48  C   UNL     1      22.195   5.683  -8.146  1.00  0.00     0.016 C 
ATOM     49  F   UNL     1      24.292   7.354  -7.240  1.00  0.00    -0.206 F 
ATOM     50  F   UNL     1      22.387   8.414  -7.262  1.00  0.00    -0.206 F 
ENDBRANCH  40  41
ENDBRANCH  33  35
ENDBRANCH   4  33
TORSDOF 7
ENDMDL
MODEL 6
REMARK VINA RESULT:   -11.114      4.824     11.160
REMARK INTER + INTRA:         -15.953
REMARK INTER:                 -14.389
REMARK INTRA:                  -1.564
REMARK UNBOUND:                -0.616
REMARK SMILES C[C@@H]1CN(c2ccc(Nc3cc(-c4ccnc(N5CCn6c(cc7c6CC(C)(C)C7)C5=O)c4CO)cn(C)c3=O)nc2)C[C@H](C)C1(F)F
REMARK SMILES IDX 36 1 12 2 11 3 10 4 39 5 37 6 40 7 38 8 13 9 17 10 33 11
REMARK SMILES IDX 16 12 15 13 14 14 18 15 22 16 31 17 21 18 23 19 20 20 25 21
REMARK SMILES IDX 24 22 19 23 26 24 30 25 27 26 32 27 28 28 29 29 34 30 35 31
REMARK SMILES IDX 9 33 8 35 7 36 41 37 6 38 42 39 5 40 4 41 3 42 43 43 2 44
REMARK SMILES IDX 44 45 46 46 1 47 45 48 47 49 48 50
REMARK H PARENT 35 32 9 34
ROOT
ATOM      1  C   UNL     1      21.804  10.537   9.935  1.00  0.00     0.097 A 
ATOM      2  C   UNL     1      22.566  10.681   8.834  1.00  0.00     0.001 A 
ATOM      3  C   UNL     1      23.131  11.990   8.553  1.00  0.00     0.042 A 
ATOM      4  C   UNL     1      22.984  13.027   9.391  1.00  0.00     0.107 A 
ATOM      5  C   UNL     1      22.225  12.805  10.682  1.00  0.00     0.274 A 
ATOM      6  N   UNL     1      21.614  11.566  10.839  1.00  0.00    -0.316 N 
ATOM      7  O   UNL     1      22.168  13.727  11.498  1.00  0.00    -0.267 OA
ATOM      8  C   UNL     1      20.827  11.309  12.035  1.00  0.00     0.153 C 
ENDROOT
BRANCH   2   9
ATOM      9  C   UNL     1      22.756   9.507   7.944  1.00  0.00    -0.006 A 
ATOM     10  C   UNL     1      22.966   8.424   5.801  1.00  0.00     0.141 A 
ATOM     11  C   UNL     1      22.595   9.563   6.536  1.00  0.00     0.028 A 
ATOM     12  N   UNL     1      23.256   7.237   6.401  1.00  0.00    -0.238 NA
ATOM     13  C   UNL     1      23.324   7.199   7.743  1.00  0.00     0.114 A 
ATOM     14  C   UNL     1      23.120   8.300   8.546  1.00  0.00     0.029 A 
BRANCH  10  15
ATOM     15  N   UNL     1      23.093   8.431   4.385  1.00  0.00    -0.289 N 
ATOM     16  C   UNL     1      24.360   8.739   2.360  1.00  0.00     0.108 A 
ATOM     17  C   UNL     1      24.265   8.947   3.798  1.00  0.00     0.276 C 
ATOM     18  N   UNL     1      23.330   8.203   1.607  1.00  0.00    -0.339 N 
ATOM     19  C   UNL     1      25.426   8.985   1.496  1.00  0.00     0.037 A 
ATOM     20  C   UNL     1      22.066   7.835   2.207  1.00  0.00     0.144 C 
ATOM     21  C   UNL     1      23.741   8.082   0.330  1.00  0.00     0.022 A 
ATOM     22  C   UNL     1      25.018   8.554   0.224  1.00  0.00    -0.026 A 
ATOM     23  C   UNL     1      22.313   7.422   3.655  1.00  0.00     0.149 C 
ATOM     24  C   UNL     1      23.151   7.558  -0.914  1.00  0.00     0.061 C 
ATOM     25  C   UNL     1      25.543   8.438  -1.151  1.00  0.00     0.044 C 
ATOM     26  C   UNL     1      24.273   7.943  -1.977  1.00  0.00    -0.026 C 
ATOM     27  O   UNL     1      25.170   9.500   4.423  1.00  0.00    -0.267 OA
ATOM     28  C   UNL     1      24.640   6.724  -2.832  1.00  0.00     0.012 C 
ATOM     29  C   UNL     1      23.769   9.070  -2.890  1.00  0.00     0.012 C 
ENDBRANCH  10  15
BRANCH  11  30
ATOM     30  C   UNL     1      21.995  10.792   5.886  1.00  0.00     0.196 C 
BRANCH  30  31
ATOM     31  O   UNL     1      22.986  11.617   5.279  1.00  0.00    -0.392 OA
ATOM     32  H   UNL     1      23.808  11.464   5.773  1.00  0.00     0.211 HD
ENDBRANCH  30  31
ENDBRANCH  11  30
ENDBRANCH   2   9
BRANCH   4  33
ATOM     33  N   UNL     1      23.503  14.307   9.186  1.00  0.00    -0.336 N 
ATOM     34  H   UNL     1      23.010  14.706   8.377  1.00  0.00     0.168 HD
BRANCH  33  35
ATOM     35  C   UNL     1      24.884  14.405   8.863  1.00  0.00     0.130 A 
ATOM     36  C   UNL     1      25.835  14.256   9.869  1.00  0.00     0.049 A 
ATOM     37  N   UNL     1      25.243  14.711   7.603  1.00  0.00    -0.237 NA
ATOM     38  C   UNL     1      27.193  14.376   9.563  1.00  0.00     0.031 A 
ATOM     39  C   UNL     1      26.576  14.818   7.342  1.00  0.00     0.139 A 
ATOM     40  C   UNL     1      27.621  14.632   8.257  1.00  0.00     0.055 A 
BRANCH  40  41
ATOM     41  N   UNL     1      28.969  14.743   7.903  1.00  0.00    -0.369 N 
ATOM     42  C   UNL     1      29.331  14.696   6.470  1.00  0.00     0.126 C 
ATOM     43  C   UNL     1      30.020  14.188   8.777  1.00  0.00     0.126 C 
ATOM     44  C   UNL     1      29.544  13.243   6.043  1.00  0.00     0.076 C 
ATOM     45  C   UNL     1      30.246  12.715   8.439  1.00  0.00     0.076 C 
ATOM     46  C   UNL     1      30.588  12.603   6.957  1.00  0.00     0.256 C 
ATOM     47  C   UNL     1      29.970  13.160   4.578  1.00  0.00     0.016 C 
ATOM     48  C   UNL     1      31.348  12.117   9.315  1.00  0.00     0.016 C 
ATOM     49  F   UNL     1      31.803  13.175   6.729  1.00  0.00    -0.206 F 
ATOM     50  F   UNL     1      30.719  11.286   6.633  1.00  0.00    -0.206 F 
ENDBRANCH  40  41
ENDBRANCH  33  35
ENDBRANCH   4  33
TORSDOF 7
ENDMDL
MODEL 7
REMARK VINA RESULT:   -11.091      6.098     12.534
REMARK INTER + INTRA:         -15.921
REMARK INTER:                 -14.410
REMARK INTRA:                  -1.511
REMARK UNBOUND:                -0.616
REMARK SMILES C[C@@H]1CN(c2ccc(Nc3cc(-c4ccnc(N5CCn6c(cc7c6CC(C)(C)C7)C5=O)c4CO)cn(C)c3=O)nc2)C[C@H](C)C1(F)F
REMARK SMILES IDX 36 1 12 2 11 3 10 4 39 5 37 6 40 7 38 8 13 9 17 10 33 11
REMARK SMILES IDX 16 12 15 13 14 14 18 15 22 16 31 17 21 18 23 19 20 20 25 21
REMARK SMILES IDX 24 22 19 23 26 24 30 25 27 26 32 27 28 28 29 29 34 30 35 31
REMARK SMILES IDX 9 33 8 35 7 36 41 37 6 38 42 39 5 40 4 41 3 42 43 43 2 44
REMARK SMILES IDX 44 45 46 46 1 47 45 48 47 49 48 50
REMARK H PARENT 35 32 9 34
ROOT
ATOM      1  C   UNL     1      30.075  14.498   5.067  1.00  0.00     0.097 A 
ATOM      2  C   UNL     1      28.742  14.313   5.034  1.00  0.00     0.001 A 
ATOM      3  C   UNL     1      27.972  14.628   6.224  1.00  0.00     0.042 A 
ATOM      4  C   UNL     1      28.533  15.168   7.317  1.00  0.00     0.107 A 
ATOM      5  C   UNL     1      30.014  15.478   7.285  1.00  0.00     0.274 A 
ATOM      6  N   UNL     1      30.714  15.050   6.162  1.00  0.00    -0.316 N 
ATOM      7  O   UNL     1      30.516  16.060   8.249  1.00  0.00    -0.267 OA
ATOM      8  C   UNL     1      32.150  15.272   6.094  1.00  0.00     0.153 C 
ENDROOT
BRANCH   2   9
ATOM      9  C   UNL     1      28.133  13.760   3.797  1.00  0.00    -0.006 A 
ATOM     10  C   UNL     1      26.709  12.251   2.570  1.00  0.00     0.141 A 
ATOM     11  C   UNL     1      27.361  12.570   3.773  1.00  0.00     0.028 A 
ATOM     12  N   UNL     1      26.968  12.911   1.408  1.00  0.00    -0.238 NA
ATOM     13  C   UNL     1      27.767  13.991   1.451  1.00  0.00     0.114 A 
ATOM     14  C   UNL     1      28.337  14.469   2.610  1.00  0.00     0.029 A 
BRANCH  10  15
ATOM     15  N   UNL     1      25.715  11.239   2.480  1.00  0.00    -0.289 N 
ATOM     16  C   UNL     1      25.016   8.934   2.444  1.00  0.00     0.108 A 
ATOM     17  C   UNL     1      26.108   9.893   2.347  1.00  0.00     0.276 C 
ATOM     18  N   UNL     1      23.687   9.312   2.525  1.00  0.00    -0.339 N 
ATOM     19  C   UNL     1      25.059   7.542   2.501  1.00  0.00     0.037 A 
ATOM     20  C   UNL     1      23.292  10.704   2.489  1.00  0.00     0.144 C 
ATOM     21  C   UNL     1      22.927   8.209   2.663  1.00  0.00     0.022 A 
ATOM     22  C   UNL     1      23.733   7.106   2.650  1.00  0.00    -0.026 A 
ATOM     23  C   UNL     1      24.414  11.546   3.090  1.00  0.00     0.149 C 
ATOM     24  C   UNL     1      21.489   7.943   2.839  1.00  0.00     0.061 C 
ATOM     25  C   UNL     1      22.968   5.854   2.814  1.00  0.00     0.044 C 
ATOM     26  C   UNL     1      21.455   6.353   2.768  1.00  0.00    -0.026 C 
ATOM     27  O   UNL     1      27.271   9.520   2.196  1.00  0.00    -0.267 OA
ATOM     28  C   UNL     1      20.673   5.781   3.956  1.00  0.00     0.012 C 
ATOM     29  C   UNL     1      20.793   5.898   1.458  1.00  0.00     0.012 C 
ENDBRANCH  10  15
BRANCH  11  30
ATOM     30  C   UNL     1      27.307  11.674   4.992  1.00  0.00     0.196 C 
BRANCH  30  31
ATOM     31  O   UNL     1      28.340  10.693   4.985  1.00  0.00    -0.392 OA
ATOM     32  H   UNL     1      28.139  10.079   5.711  1.00  0.00     0.211 HD
ENDBRANCH  30  31
ENDBRANCH  11  30
ENDBRANCH   2   9
BRANCH   4  33
ATOM     33  N   UNL     1      27.852  15.499   8.491  1.00  0.00    -0.336 N 
ATOM     34  H   UNL     1      28.438  15.189   9.277  1.00  0.00     0.168 HD
BRANCH  33  35
ATOM     35  C   UNL     1      26.588  14.887   8.706  1.00  0.00     0.130 A 
ATOM     36  C   UNL     1      26.533  13.562   9.130  1.00  0.00     0.049 A 
ATOM     37  N   UNL     1      25.469  15.578   8.428  1.00  0.00    -0.237 NA
ATOM     38  C   UNL     1      25.293  12.945   9.319  1.00  0.00     0.031 A 
ATOM     39  C   UNL     1      24.279  14.945   8.627  1.00  0.00     0.139 A 
ATOM     40  C   UNL     1      24.099  13.639   9.103  1.00  0.00     0.055 A 
BRANCH  40  41
ATOM     41  N   UNL     1      22.838  13.068   9.297  1.00  0.00    -0.369 N 
ATOM     42  C   UNL     1      22.111  13.365  10.550  1.00  0.00     0.126 C 
ATOM     43  C   UNL     1      22.534  11.727   8.763  1.00  0.00     0.126 C 
ATOM     44  C   UNL     1      22.513  12.356  11.627  1.00  0.00     0.076 C 
ATOM     45  C   UNL     1      22.964  10.662   9.772  1.00  0.00     0.076 C 
ATOM     46  C   UNL     1      22.269  10.942  11.101  1.00  0.00     0.256 C 
ATOM     47  C   UNL     1      21.742  12.601  12.923  1.00  0.00     0.016 C 
ATOM     48  C   UNL     1      22.640   9.260   9.255  1.00  0.00     0.016 C 
ATOM     49  F   UNL     1      20.930  10.733  10.963  1.00  0.00    -0.206 F 
ATOM     50  F   UNL     1      22.705  10.040  12.024  1.00  0.00    -0.206 F 
ENDBRANCH  40  41
ENDBRANCH  33  35
ENDBRANCH   4  33
TORSDOF 7
ENDMDL
MODEL 8
REMARK VINA RESULT:   -10.655      3.792     10.539
REMARK INTER + INTRA:         -15.320
REMARK INTER:                 -13.987
REMARK INTRA:                  -1.333
REMARK UNBOUND:                -0.616
REMARK SMILES C[C@@H]1CN(c2ccc(Nc3cc(-c4ccnc(N5CCn6c(cc7c6CC(C)(C)C7)C5=O)c4CO)cn(C)c3=O)nc2)C[C@H](C)C1(F)F
REMARK SMILES IDX 36 1 12 2 11 3 10 4 39 5 37 6 40 7 38 8 13 9 17 10 33 11
REMARK SMILES IDX 16 12 15 13 14 14 18 15 22 16 31 17 21 18 23 19 20 20 25 21
REMARK SMILES IDX 24 22 19 23 26 24 30 25 27 26 32 27 28 28 29 29 34 30 35 31
REMARK SMILES IDX 9 33 8 35 7 36 41 37 6 38 42 39 5 40 4 41 3 42 43 43 2 44
REMARK SMILES IDX 44 45 46 46 1 47 45 48 47 49 48 50
REMARK H PARENT 35 32 9 34
ROOT
ATOM      1  C   UNL     1      25.624  11.982   4.832  1.00  0.00     0.097 A 
ATOM      2  C   UNL     1      24.980  11.300   3.867  1.00  0.00     0.001 A 
ATOM      3  C   UNL     1      23.786  10.556   4.228  1.00  0.00     0.042 A 
ATOM      4  C   UNL     1      23.267  10.592   5.466  1.00  0.00     0.107 A 
ATOM      5  C   UNL     1      23.943  11.464   6.502  1.00  0.00     0.274 A 
ATOM      6  N   UNL     1      25.143  12.060   6.126  1.00  0.00    -0.316 N 
ATOM      7  O   UNL     1      23.418  11.576   7.611  1.00  0.00    -0.267 OA
ATOM      8  C   UNL     1      25.867  12.868   7.094  1.00  0.00     0.153 C 
ENDROOT
BRANCH   2   9
ATOM      9  C   UNL     1      25.543  11.312   2.493  1.00  0.00    -0.006 A 
ATOM     10  C   UNL     1      26.025  10.340   0.340  1.00  0.00     0.141 A 
ATOM     11  C   UNL     1      25.624  10.156   1.674  1.00  0.00     0.028 A 
ATOM     12  N   UNL     1      26.531  11.521  -0.108  1.00  0.00    -0.238 NA
ATOM     13  C   UNL     1      26.512  12.580   0.720  1.00  0.00     0.114 A 
ATOM     14  C   UNL     1      26.003  12.535   1.999  1.00  0.00     0.029 A 
BRANCH  10  15
ATOM     15  N   UNL     1      25.908   9.322  -0.645  1.00  0.00    -0.289 N 
ATOM     16  C   UNL     1      26.679   7.324  -1.747  1.00  0.00     0.108 A 
ATOM     17  C   UNL     1      26.977   8.428  -0.846  1.00  0.00     0.276 C 
ATOM     18  N   UNL     1      25.493   7.230  -2.456  1.00  0.00    -0.339 N 
ATOM     19  C   UNL     1      27.438   6.196  -2.054  1.00  0.00     0.037 A 
ATOM     20  C   UNL     1      24.474   8.253  -2.364  1.00  0.00     0.144 C 
ATOM     21  C   UNL     1      25.490   6.076  -3.151  1.00  0.00     0.022 A 
ATOM     22  C   UNL     1      26.666   5.419  -2.931  1.00  0.00    -0.026 A 
ATOM     23  C   UNL     1      24.543   8.891  -0.979  1.00  0.00     0.149 C 
ATOM     24  C   UNL     1      24.534   5.391  -4.036  1.00  0.00     0.061 C 
ATOM     25  C   UNL     1      26.729   4.131  -3.651  1.00  0.00     0.044 C 
ATOM     26  C   UNL     1      25.404   4.155  -4.537  1.00  0.00    -0.026 C 
ATOM     27  O   UNL     1      28.074   8.520  -0.294  1.00  0.00    -0.267 OA
ATOM     28  C   UNL     1      24.626   2.845  -4.360  1.00  0.00     0.012 C 
ATOM     29  C   UNL     1      25.768   4.332  -6.019  1.00  0.00     0.012 C 
ENDBRANCH  10  15
BRANCH  11  30
ATOM     30  C   UNL     1      25.336   8.789   2.257  1.00  0.00     0.196 C 
BRANCH  30  31
ATOM     31  O   UNL     1      26.516   8.000   2.385  1.00  0.00    -0.392 OA
ATOM     32  H   UNL     1      26.245   7.078   2.239  1.00  0.00     0.211 HD
ENDBRANCH  30  31
ENDBRANCH  11  30
ENDBRANCH   2   9
BRANCH   4  33
ATOM     33  N   UNL     1      22.122   9.907   5.878  1.00  0.00    -0.336 N 
ATOM     34  H   UNL     1      22.299   9.574   6.835  1.00  0.00     0.168 HD
BRANCH  33  35
ATOM     35  C   UNL     1      21.758   8.747   5.144  1.00  0.00     0.130 A 
ATOM     36  C   UNL     1      20.920   8.871   4.039  1.00  0.00     0.049 A 
ATOM     37  N   UNL     1      22.172   7.542   5.573  1.00  0.00    -0.237 NA
ATOM     38  C   UNL     1      20.537   7.731   3.327  1.00  0.00     0.031 A 
ATOM     39  C   UNL     1      21.781   6.454   4.853  1.00  0.00     0.139 A 
ATOM     40  C   UNL     1      20.990   6.461   3.695  1.00  0.00     0.055 A 
BRANCH  40  41
ATOM     41  N   UNL     1      20.647   5.296   3.002  1.00  0.00    -0.369 N 
ATOM     42  C   UNL     1      21.262   5.053   1.680  1.00  0.00     0.126 C 
ATOM     43  C   UNL     1      19.290   4.731   3.116  1.00  0.00     0.126 C 
ATOM     44  C   UNL     1      20.413   5.712   0.591  1.00  0.00     0.076 C 
ATOM     45  C   UNL     1      18.371   5.390   2.087  1.00  0.00     0.076 C 
ATOM     46  C   UNL     1      18.977   5.200   0.701  1.00  0.00     0.256 C 
ATOM     47  C   UNL     1      20.991   5.437  -0.796  1.00  0.00     0.016 C 
ATOM     48  C   UNL     1      16.959   4.806   2.165  1.00  0.00     0.016 C 
ATOM     49  F   UNL     1      18.939   3.880   0.367  1.00  0.00    -0.206 F 
ATOM     50  F   UNL     1      18.201   5.848  -0.212  1.00  0.00    -0.206 F 
ENDBRANCH  40  41
ENDBRANCH  33  35
ENDBRANCH   4  33
TORSDOF 7
ENDMDL
MODEL 9
REMARK VINA RESULT:   -10.366      5.041      7.841
REMARK INTER + INTRA:         -14.920
REMARK INTER:                 -13.482
REMARK INTRA:                  -1.438
REMARK UNBOUND:                -0.616
REMARK SMILES C[C@@H]1CN(c2ccc(Nc3cc(-c4ccnc(N5CCn6c(cc7c6CC(C)(C)C7)C5=O)c4CO)cn(C)c3=O)nc2)C[C@H](C)C1(F)F
REMARK SMILES IDX 36 1 12 2 11 3 10 4 39 5 37 6 40 7 38 8 13 9 17 10 33 11
REMARK SMILES IDX 16 12 15 13 14 14 18 15 22 16 31 17 21 18 23 19 20 20 25 21
REMARK SMILES IDX 24 22 19 23 26 24 30 25 27 26 32 27 28 28 29 29 34 30 35 31
REMARK SMILES IDX 9 33 8 35 7 36 41 37 6 38 42 39 5 40 4 41 3 42 43 43 2 44
REMARK SMILES IDX 44 45 46 46 1 47 45 48 47 49 48 50
REMARK H PARENT 35 32 9 34
ROOT
ATOM      1  C   UNL     1      28.831  13.857   1.750  1.00  0.00     0.097 A 
ATOM      2  C   UNL     1      28.243  12.924   2.521  1.00  0.00     0.001 A 
ATOM      3  C   UNL     1      27.543  11.831   1.869  1.00  0.00     0.042 A 
ATOM      4  C   UNL     1      27.533  11.682   0.535  1.00  0.00     0.107 A 
ATOM      5  C   UNL     1      28.305  12.678  -0.303  1.00  0.00     0.274 A 
ATOM      6  N   UNL     1      28.857  13.762   0.370  1.00  0.00    -0.316 N 
ATOM      7  O   UNL     1      28.378  12.493  -1.520  1.00  0.00    -0.267 OA
ATOM      8  C   UNL     1      29.567  14.781  -0.387  1.00  0.00     0.153 C 
ENDROOT
BRANCH   2   9
ATOM      9  C   UNL     1      28.307  13.081   3.997  1.00  0.00    -0.006 A 
ATOM     10  C   UNL     1      27.347  13.244   6.202  1.00  0.00     0.141 A 
ATOM     11  C   UNL     1      27.160  13.276   4.810  1.00  0.00     0.028 A 
ATOM     12  N   UNL     1      28.584  13.251   6.768  1.00  0.00    -0.238 NA
ATOM     13  C   UNL     1      29.656  13.144   5.963  1.00  0.00     0.114 A 
ATOM     14  C   UNL     1      29.568  13.022   4.594  1.00  0.00     0.029 A 
BRANCH  10  15
ATOM     15  N   UNL     1      26.264  13.173   7.121  1.00  0.00    -0.289 N 
ATOM     16  C   UNL     1      24.499  11.984   8.248  1.00  0.00     0.108 A 
ATOM     17  C   UNL     1      25.458  12.019   7.153  1.00  0.00     0.276 C 
ATOM     18  N   UNL     1      24.297  13.051   9.107  1.00  0.00    -0.339 N 
ATOM     19  C   UNL     1      23.660  10.951   8.662  1.00  0.00     0.037 A 
ATOM     20  C   UNL     1      25.019  14.295   8.950  1.00  0.00     0.144 C 
ATOM     21  C   UNL     1      23.397  12.694  10.043  1.00  0.00     0.022 A 
ATOM     22  C   UNL     1      22.983  11.416   9.801  1.00  0.00    -0.026 A 
ATOM     23  C   UNL     1      26.382  13.996   8.332  1.00  0.00     0.149 C 
ATOM     24  C   UNL     1      22.806  13.341  11.227  1.00  0.00     0.061 C 
ATOM     25  C   UNL     1      22.002  10.948  10.801  1.00  0.00     0.044 C 
ATOM     26  C   UNL     1      21.725  12.257  11.666  1.00  0.00    -0.026 C 
ATOM     27  O   UNL     1      25.554  11.082   6.360  1.00  0.00    -0.267 OA
ATOM     28  C   UNL     1      21.860  11.942  13.161  1.00  0.00     0.012 C 
ATOM     29  C   UNL     1      20.309  12.781  11.384  1.00  0.00     0.012 C 
ENDBRANCH  10  15
BRANCH  11  30
ATOM     30  C   UNL     1      25.815  13.558   4.174  1.00  0.00     0.196 C 
BRANCH  30  31
ATOM     31  O   UNL     1      25.093  12.363   3.890  1.00  0.00    -0.392 OA
ATOM     32  H   UNL     1      25.751  11.710   3.599  1.00  0.00     0.211 HD
ENDBRANCH  30  31
ENDBRANCH  11  30
ENDBRANCH   2   9
BRANCH   4  33
ATOM     33  N   UNL     1      26.887  10.655  -0.155  1.00  0.00    -0.336 N 
ATOM     34  H   UNL     1      26.179  11.095  -0.757  1.00  0.00     0.168 HD
BRANCH  33  35
ATOM     35  C   UNL     1      26.173   9.700   0.619  1.00  0.00     0.130 A 
ATOM     36  C   UNL     1      24.866   9.977   1.013  1.00  0.00     0.049 A 
ATOM     37  N   UNL     1      26.797   8.576   1.013  1.00  0.00    -0.237 NA
ATOM     38  C   UNL     1      24.167   9.053   1.795  1.00  0.00     0.031 A 
ATOM     39  C   UNL     1      26.083   7.698   1.772  1.00  0.00     0.139 A 
ATOM     40  C   UNL     1      24.750   7.842   2.181  1.00  0.00     0.055 A 
BRANCH  40  41
ATOM     41  N   UNL     1      24.082   6.882   2.946  1.00  0.00    -0.369 N 
ATOM     42  C   UNL     1      23.024   6.075   2.303  1.00  0.00     0.126 C 
ATOM     43  C   UNL     1      23.835   7.111   4.382  1.00  0.00     0.126 C 
ATOM     44  C   UNL     1      21.684   6.805   2.413  1.00  0.00     0.076 C 
ATOM     45  C   UNL     1      22.532   7.889   4.562  1.00  0.00     0.076 C 
ATOM     46  C   UNL     1      21.406   7.116   3.883  1.00  0.00     0.256 C 
ATOM     47  C   UNL     1      20.556   5.975   1.802  1.00  0.00     0.016 C 
ATOM     48  C   UNL     1      22.235   8.122   6.044  1.00  0.00     0.016 C 
ATOM     49  F   UNL     1      21.183   5.955   4.559  1.00  0.00    -0.206 F 
ATOM     50  F   UNL     1      20.255   7.840   3.976  1.00  0.00    -0.206 F 
ENDBRANCH  40  41
ENDBRANCH  33  35
ENDBRANCH   4  33
TORSDOF 7
ENDMDL
