MODEL 1
REMARK VINA RESULT:   -11.344      0.000      0.000
REMARK INTER + INTRA:         -17.630
REMARK INTER:                 -17.644
REMARK INTRA:                   0.014
REMARK UNBOUND:                 0.014
REMARK SMILES CCN(CC)[C@@H]1CCN(c2ccc(Nc3cc(-c4ccnc(N5CCn6c(cc7c6CC(C)(C)C7)C5=O)c4CO)cn(C)c3=O)nc2)[C@@H](C)C1
REMARK SMILES IDX 14 1 13 3 10 4 47 5 11 6 46 7 12 8 9 9 6 10 7 11 50 12 8 13
REMARK SMILES IDX 48 14 49 15 3 16 2 17 1 18 4 19 5 20 15 21 44 22 16 23 42 24
REMARK SMILES IDX 17 25 41 26 45 27 43 28 18 29 19 30 38 31 20 32 22 33 21 34
REMARK SMILES IDX 39 35 40 36 23 38 24 39 36 40 25 41 27 42 26 43 28 44 30 45
REMARK SMILES IDX 29 46 31 47 35 48 32 49 37 50 33 51 34 52
REMARK H PARENT 14 2 40 37
ROOT
ATOM      1  N   UNL     1      20.705   4.804  -1.286  1.00  0.00    -0.336 N 
ATOM      2  H   UNL     1      20.782   3.817  -1.502  1.00  0.00     0.168 HD
ENDROOT
BRANCH   1   3
ATOM      3  C   UNL     1      21.693   5.516  -1.998  1.00  0.00     0.130 A 
ATOM      4  C   UNL     1      23.618   6.916  -3.446  1.00  0.00     0.056 A 
ATOM      5  C   UNL     1      23.174   7.290  -2.178  1.00  0.00     0.139 A 
ATOM      6  C   UNL     1      23.051   5.753  -3.966  1.00  0.00     0.031 A 
ATOM      7  N   UNL     1      22.243   6.626  -1.458  1.00  0.00    -0.237 NA
ATOM      8  C   UNL     1      22.102   5.035  -3.234  1.00  0.00     0.049 A 
BRANCH   4   9
ATOM      9  N   UNL     1      24.557   7.626  -4.223  1.00  0.00    -0.367 N 
ATOM     10  C   UNL     1      26.121   8.670  -6.006  1.00  0.00     0.060 C 
ATOM     11  C   UNL     1      24.926   9.564  -5.708  1.00  0.00     0.040 C 
ATOM     12  C   UNL     1      26.857   8.252  -4.720  1.00  0.00     0.044 C 
ATOM     13  C   UNL     1      23.921   8.818  -4.822  1.00  0.00     0.118 C 
ATOM     14  C   UNL     1      25.865   7.894  -3.584  1.00  0.00     0.080 C 
ATOM     15  C   UNL     1      26.426   6.712  -2.771  1.00  0.00     0.031 C 
BRANCH  10  16
ATOM     16  N   UNL     1      27.020   9.333  -7.080  1.00  0.00    -0.301 NA
BRANCH  16  17
ATOM     17  C   UNL     1      26.442  10.683  -7.507  1.00  0.00     0.081 C 
ATOM     18  C   UNL     1      27.447  11.430  -8.377  1.00  0.00     0.021 C 
ENDBRANCH  16  17
BRANCH  16  19
ATOM     19  C   UNL     1      27.426   8.506  -8.292  1.00  0.00     0.081 C 
ATOM     20  C   UNL     1      26.399   7.426  -8.579  1.00  0.00     0.021 C 
ENDBRANCH  16  19
ENDBRANCH  10  16
ENDBRANCH   4   9
ENDBRANCH   1   3
BRANCH   1  21
ATOM     21  C   UNL     1      20.512   5.068   0.064  1.00  0.00     0.107 A 
ATOM     22  C   UNL     1      19.136   4.760   0.654  1.00  0.00     0.274 A 
ATOM     23  C   UNL     1      21.465   5.532   0.894  1.00  0.00     0.042 A 
ATOM     24  N   UNL     1      18.962   5.077   2.005  1.00  0.00    -0.316 N 
ATOM     25  C   UNL     1      21.213   5.794   2.292  1.00  0.00     0.001 A 
ATOM     26  C   UNL     1      19.986   5.560   2.789  1.00  0.00     0.097 A 
ATOM     27  O   UNL     1      18.261   4.216  -0.017  1.00  0.00    -0.267 OA
ATOM     28  C   UNL     1      17.688   4.774   2.640  1.00  0.00     0.153 C 
BRANCH  25  29
ATOM     29  C   UNL     1      22.205   6.361   3.228  1.00  0.00    -0.006 A 
ATOM     30  C   UNL     1      23.555   6.181   2.914  1.00  0.00     0.029 A 
ATOM     31  C   UNL     1      21.842   7.127   4.357  1.00  0.00     0.028 A 
ATOM     32  C   UNL     1      24.500   6.820   3.682  1.00  0.00     0.114 A 
ATOM     33  C   UNL     1      22.885   7.736   5.067  1.00  0.00     0.141 A 
ATOM     34  N   UNL     1      24.193   7.630   4.710  1.00  0.00    -0.238 NA
BRANCH  31  35
ATOM     35  C   UNL     1      20.398   7.365   4.704  1.00  0.00     0.196 C 
BRANCH  35  36
ATOM     36  O   UNL     1      20.055   8.710   4.387  1.00  0.00    -0.392 OA
ATOM     37  H   UNL     1      20.903   9.193   4.298  1.00  0.00     0.211 HD
ENDBRANCH  35  36
ENDBRANCH  31  35
BRANCH  33  38
ATOM     38  N   UNL     1      22.611   8.599   6.158  1.00  0.00    -0.289 N 
ATOM     39  C   UNL     1      22.917  10.018   5.947  1.00  0.00     0.149 C 
ATOM     40  C   UNL     1      22.709   8.077   7.458  1.00  0.00     0.276 C 
ATOM     41  C   UNL     1      22.124  10.896   6.905  1.00  0.00     0.144 C 
ATOM     42  C   UNL     1      22.657   9.091   8.509  1.00  0.00     0.108 A 
ATOM     43  N   UNL     1      22.353  10.424   8.253  1.00  0.00    -0.339 N 
ATOM     44  C   UNL     1      22.900   8.983   9.885  1.00  0.00     0.037 A 
ATOM     45  C   UNL     1      22.344  11.109   9.409  1.00  0.00     0.022 A 
ATOM     46  C   UNL     1      22.722  10.269  10.419  1.00  0.00    -0.026 A 
ATOM     47  C   UNL     1      22.057  12.500   9.801  1.00  0.00     0.061 C 
ATOM     48  C   UNL     1      22.789  10.978  11.716  1.00  0.00     0.044 C 
ATOM     49  C   UNL     1      22.594  12.511  11.294  1.00  0.00    -0.026 C 
ATOM     50  O   UNL     1      22.804   6.876   7.699  1.00  0.00    -0.267 OA
ATOM     51  C   UNL     1      23.934  13.265  11.346  1.00  0.00     0.012 C 
ATOM     52  C   UNL     1      21.593  13.198  12.226  1.00  0.00     0.012 C 
ENDBRANCH  33  38
ENDBRANCH  25  29
ENDBRANCH   1  21
TORSDOF 10
ENDMDL
MODEL 2
REMARK VINA RESULT:   -11.268      1.402      2.070
REMARK INTER + INTRA:         -17.512
REMARK INTER:                 -17.062
REMARK INTRA:                  -0.450
REMARK UNBOUND:                 0.014
REMARK SMILES CCN(CC)[C@@H]1CCN(c2ccc(Nc3cc(-c4ccnc(N5CCn6c(cc7c6CC(C)(C)C7)C5=O)c4CO)cn(C)c3=O)nc2)[C@@H](C)C1
REMARK SMILES IDX 14 1 13 3 10 4 47 5 11 6 46 7 12 8 9 9 6 10 7 11 50 12 8 13
REMARK SMILES IDX 48 14 49 15 3 16 2 17 1 18 4 19 5 20 15 21 44 22 16 23 42 24
REMARK SMILES IDX 17 25 41 26 45 27 43 28 18 29 19 30 38 31 20 32 22 33 21 34
REMARK SMILES IDX 39 35 40 36 23 38 24 39 36 40 25 41 27 42 26 43 28 44 30 45
REMARK SMILES IDX 29 46 31 47 35 48 32 49 37 50 33 51 34 52
REMARK H PARENT 14 2 40 37
ROOT
ATOM      1  N   UNL     1      20.993   5.287  -1.463  1.00  0.00    -0.336 N 
ATOM      2  H   UNL     1      20.681   4.408  -1.860  1.00  0.00     0.168 HD
ENDROOT
BRANCH   1   3
ATOM      3  C   UNL     1      22.264   5.608  -1.984  1.00  0.00     0.130 A 
ATOM      4  C   UNL     1      24.761   6.224  -3.055  1.00  0.00     0.056 A 
ATOM      5  C   UNL     1      24.005   7.109  -2.288  1.00  0.00     0.139 A 
ATOM      6  C   UNL     1      24.200   4.962  -3.249  1.00  0.00     0.031 A 
ATOM      7  N   UNL     1      22.793   6.832  -1.758  1.00  0.00    -0.237 NA
ATOM      8  C   UNL     1      22.959   4.641  -2.696  1.00  0.00     0.049 A 
BRANCH   4   9
ATOM      9  N   UNL     1      26.007   6.518  -3.647  1.00  0.00    -0.367 N 
ATOM     10  C   UNL     1      28.344   7.362  -4.382  1.00  0.00     0.060 C 
ATOM     11  C   UNL     1      28.427   6.029  -3.654  1.00  0.00     0.040 C 
ATOM     12  C   UNL     1      27.321   7.323  -5.532  1.00  0.00     0.044 C 
ATOM     13  C   UNL     1      27.063   5.676  -3.047  1.00  0.00     0.118 C 
ATOM     14  C   UNL     1      26.033   6.561  -5.126  1.00  0.00     0.080 C 
ATOM     15  C   UNL     1      24.811   7.252  -5.761  1.00  0.00     0.031 C 
BRANCH  10  16
ATOM     16  N   UNL     1      29.764   7.828  -4.795  1.00  0.00    -0.301 NA
BRANCH  16  17
ATOM     17  C   UNL     1      30.306   8.848  -3.794  1.00  0.00     0.081 C 
ATOM     18  C   UNL     1      29.200   9.275  -2.834  1.00  0.00     0.021 C 
ENDBRANCH  16  17
BRANCH  16  19
ATOM     19  C   UNL     1      29.981   8.300  -6.226  1.00  0.00     0.081 C 
ATOM     20  C   UNL     1      30.286   9.786  -6.266  1.00  0.00     0.021 C 
ENDBRANCH  16  19
ENDBRANCH  10  16
ENDBRANCH   4   9
ENDBRANCH   1   3
BRANCH   1  21
ATOM     21  C   UNL     1      20.766   5.396  -0.097  1.00  0.00     0.107 A 
ATOM     22  C   UNL     1      19.398   4.962   0.428  1.00  0.00     0.274 A 
ATOM     23  C   UNL     1      21.681   5.814   0.797  1.00  0.00     0.042 A 
ATOM     24  N   UNL     1      19.187   5.125   1.801  1.00  0.00    -0.316 N 
ATOM     25  C   UNL     1      21.395   5.914   2.209  1.00  0.00     0.001 A 
ATOM     26  C   UNL     1      20.173   5.569   2.653  1.00  0.00     0.097 A 
ATOM     27  O   UNL     1      18.561   4.451  -0.314  1.00  0.00    -0.267 OA
ATOM     28  C   UNL     1      17.920   4.696   2.374  1.00  0.00     0.153 C 
BRANCH  25  29
ATOM     29  C   UNL     1      22.343   6.424   3.220  1.00  0.00    -0.006 A 
ATOM     30  C   UNL     1      23.704   6.217   2.980  1.00  0.00     0.029 A 
ATOM     31  C   UNL     1      21.932   7.164   4.350  1.00  0.00     0.028 A 
ATOM     32  C   UNL     1      24.618   6.807   3.824  1.00  0.00     0.114 A 
ATOM     33  C   UNL     1      22.946   7.723   5.140  1.00  0.00     0.141 A 
ATOM     34  N   UNL     1      24.270   7.592   4.858  1.00  0.00    -0.238 NA
BRANCH  31  35
ATOM     35  C   UNL     1      20.477   7.430   4.618  1.00  0.00     0.196 C 
BRANCH  35  36
ATOM     36  O   UNL     1      20.159   8.756   4.208  1.00  0.00    -0.392 OA
ATOM     37  H   UNL     1      19.254   8.933   4.537  1.00  0.00     0.211 HD
ENDBRANCH  35  36
ENDBRANCH  31  35
BRANCH  33  38
ATOM     38  N   UNL     1      22.628   8.558   6.240  1.00  0.00    -0.289 N 
ATOM     39  C   UNL     1      22.882   9.991   6.052  1.00  0.00     0.149 C 
ATOM     40  C   UNL     1      22.734   8.022   7.533  1.00  0.00     0.276 C 
ATOM     41  C   UNL     1      22.047  10.825   7.014  1.00  0.00     0.144 C 
ATOM     42  C   UNL     1      22.633   9.018   8.598  1.00  0.00     0.108 A 
ATOM     43  N   UNL     1      22.281  10.341   8.357  1.00  0.00    -0.339 N 
ATOM     44  C   UNL     1      22.867   8.899   9.974  1.00  0.00     0.037 A 
ATOM     45  C   UNL     1      22.235  11.009   9.523  1.00  0.00     0.022 A 
ATOM     46  C   UNL     1      22.634  10.169  10.525  1.00  0.00    -0.026 A 
ATOM     47  C   UNL     1      21.891  12.383   9.932  1.00  0.00     0.061 C 
ATOM     48  C   UNL     1      22.662  10.862  11.832  1.00  0.00     0.044 C 
ATOM     49  C   UNL     1      22.413  12.392  11.430  1.00  0.00    -0.026 C 
ATOM     50  O   UNL     1      22.872   6.822   7.758  1.00  0.00    -0.267 OA
ATOM     51  C   UNL     1      23.723  13.196  11.506  1.00  0.00     0.012 C 
ATOM     52  C   UNL     1      21.377  13.027  12.361  1.00  0.00     0.012 C 
ENDBRANCH  33  38
ENDBRANCH  25  29
ENDBRANCH   1  21
TORSDOF 10
ENDMDL
MODEL 3
REMARK VINA RESULT:   -11.128      2.388      3.334
REMARK INTER + INTRA:         -17.294
REMARK INTER:                 -16.719
REMARK INTRA:                  -0.575
REMARK UNBOUND:                 0.014
REMARK SMILES CCN(CC)[C@@H]1CCN(c2ccc(Nc3cc(-c4ccnc(N5CCn6c(cc7c6CC(C)(C)C7)C5=O)c4CO)cn(C)c3=O)nc2)[C@@H](C)C1
REMARK SMILES IDX 14 1 13 3 10 4 47 5 11 6 46 7 12 8 9 9 6 10 7 11 50 12 8 13
REMARK SMILES IDX 48 14 49 15 3 16 2 17 1 18 4 19 5 20 15 21 44 22 16 23 42 24
REMARK SMILES IDX 17 25 41 26 45 27 43 28 18 29 19 30 38 31 20 32 22 33 21 34
REMARK SMILES IDX 39 35 40 36 23 38 24 39 36 40 25 41 27 42 26 43 28 44 30 45
REMARK SMILES IDX 29 46 31 47 35 48 32 49 37 50 33 51 34 52
REMARK H PARENT 14 2 40 37
ROOT
ATOM      1  N   UNL     1      19.984   5.832  -1.285  1.00  0.00    -0.336 N 
ATOM      2  H   UNL     1      19.129   5.489  -1.706  1.00  0.00     0.168 HD
ENDROOT
BRANCH   1   3
ATOM      3  C   UNL     1      21.086   5.416  -2.062  1.00  0.00     0.130 A 
ATOM      4  C   UNL     1      23.283   4.581  -3.558  1.00  0.00     0.056 A 
ATOM      5  C   UNL     1      21.959   4.344  -3.922  1.00  0.00     0.139 A 
ATOM      6  C   UNL     1      23.464   5.303  -2.378  1.00  0.00     0.031 A 
ATOM      7  N   UNL     1      20.879   4.739  -3.214  1.00  0.00    -0.237 NA
ATOM      8  C   UNL     1      22.366   5.744  -1.637  1.00  0.00     0.049 A 
BRANCH   4   9
ATOM      9  N   UNL     1      24.417   4.135  -4.268  1.00  0.00    -0.367 N 
ATOM     10  C   UNL     1      26.678   3.225  -5.148  1.00  0.00     0.060 C 
ATOM     11  C   UNL     1      25.572   2.185  -5.246  1.00  0.00     0.040 C 
ATOM     12  C   UNL     1      26.266   4.561  -5.794  1.00  0.00     0.044 C 
ATOM     13  C   UNL     1      24.317   2.682  -4.519  1.00  0.00     0.118 C 
ATOM     14  C   UNL     1      24.798   4.931  -5.456  1.00  0.00     0.080 C 
ATOM     15  C   UNL     1      24.690   6.455  -5.259  1.00  0.00     0.031 C 
BRANCH  10  16
ATOM     16  N   UNL     1      28.009   2.633  -5.679  1.00  0.00    -0.301 NA
BRANCH  16  17
ATOM     17  C   UNL     1      27.944   2.442  -7.195  1.00  0.00     0.081 C 
ATOM     18  C   UNL     1      29.160   1.655  -7.673  1.00  0.00     0.021 C 
ENDBRANCH  16  17
BRANCH  16  19
ATOM     19  C   UNL     1      28.570   1.394  -4.996  1.00  0.00     0.081 C 
ATOM     20  C   UNL     1      29.617   1.772  -3.964  1.00  0.00     0.021 C 
ENDBRANCH  16  19
ENDBRANCH  10  16
ENDBRANCH   4   9
ENDBRANCH   1   3
BRANCH   1  21
ATOM     21  C   UNL     1      20.027   5.684   0.096  1.00  0.00     0.107 A 
ATOM     22  C   UNL     1      18.910   4.873   0.753  1.00  0.00     0.274 A 
ATOM     23  C   UNL     1      21.005   6.166   0.885  1.00  0.00     0.042 A 
ATOM     24  N   UNL     1      18.959   4.779   2.148  1.00  0.00    -0.316 N 
ATOM     25  C   UNL     1      21.002   5.988   2.318  1.00  0.00     0.001 A 
ATOM     26  C   UNL     1      19.992   5.309   2.889  1.00  0.00     0.097 A 
ATOM     27  O   UNL     1      18.057   4.298   0.080  1.00  0.00    -0.267 OA
ATOM     28  C   UNL     1      17.948   3.990   2.835  1.00  0.00     0.153 C 
BRANCH  25  29
ATOM     29  C   UNL     1      22.018   6.548   3.232  1.00  0.00    -0.006 A 
ATOM     30  C   UNL     1      23.358   6.405   2.862  1.00  0.00     0.029 A 
ATOM     31  C   UNL     1      21.683   7.275   4.395  1.00  0.00     0.028 A 
ATOM     32  C   UNL     1      24.319   7.042   3.613  1.00  0.00     0.114 A 
ATOM     33  C   UNL     1      22.741   7.886   5.083  1.00  0.00     0.141 A 
ATOM     34  N   UNL     1      24.035   7.817   4.674  1.00  0.00    -0.238 NA
BRANCH  31  35
ATOM     35  C   UNL     1      20.249   7.473   4.802  1.00  0.00     0.196 C 
BRANCH  35  36
ATOM     36  O   UNL     1      19.803   8.745   4.344  1.00  0.00    -0.392 OA
ATOM     37  H   UNL     1      19.748   9.316   5.138  1.00  0.00     0.211 HD
ENDBRANCH  35  36
ENDBRANCH  31  35
BRANCH  33  38
ATOM     38  N   UNL     1      22.491   8.712   6.207  1.00  0.00    -0.289 N 
ATOM     39  C   UNL     1      22.785  10.139   6.034  1.00  0.00     0.149 C 
ATOM     40  C   UNL     1      22.625   8.150   7.487  1.00  0.00     0.276 C 
ATOM     41  C   UNL     1      22.014  10.982   7.040  1.00  0.00     0.144 C 
ATOM     42  C   UNL     1      22.596   9.130   8.571  1.00  0.00     0.108 A 
ATOM     43  N   UNL     1      22.280  10.468   8.365  1.00  0.00    -0.339 N 
ATOM     44  C   UNL     1      22.875   8.979   9.936  1.00  0.00     0.037 A 
ATOM     45  C   UNL     1      22.298  11.116   9.542  1.00  0.00     0.022 A 
ATOM     46  C   UNL     1      22.705  10.246  10.515  1.00  0.00    -0.026 A 
ATOM     47  C   UNL     1      22.016  12.493   9.987  1.00  0.00     0.061 C 
ATOM     48  C   UNL     1      22.804  10.914  11.832  1.00  0.00     0.044 C 
ATOM     49  C   UNL     1      22.591  12.458  11.464  1.00  0.00    -0.026 C 
ATOM     50  O   UNL     1      22.731   6.942   7.687  1.00  0.00    -0.267 OA
ATOM     51  C   UNL     1      23.929  13.217  11.505  1.00  0.00     0.012 C 
ATOM     52  C   UNL     1      21.611  13.110  12.443  1.00  0.00     0.012 C 
ENDBRANCH  33  38
ENDBRANCH  25  29
ENDBRANCH   1  21
TORSDOF 10
ENDMDL
MODEL 4
REMARK VINA RESULT:   -10.216      3.319     11.192
REMARK INTER + INTRA:         -15.875
REMARK INTER:                 -14.432
REMARK INTRA:                  -1.443
REMARK UNBOUND:                 0.014
REMARK SMILES CCN(CC)[C@@H]1CCN(c2ccc(Nc3cc(-c4ccnc(N5CCn6c(cc7c6CC(C)(C)C7)C5=O)c4CO)cn(C)c3=O)nc2)[C@@H](C)C1
REMARK SMILES IDX 14 1 13 3 10 4 47 5 11 6 46 7 12 8 9 9 6 10 7 11 50 12 8 13
REMARK SMILES IDX 48 14 49 15 3 16 2 17 1 18 4 19 5 20 15 21 44 22 16 23 42 24
REMARK SMILES IDX 17 25 41 26 45 27 43 28 18 29 19 30 38 31 20 32 22 33 21 34
REMARK SMILES IDX 39 35 40 36 23 38 24 39 36 40 25 41 27 42 26 43 28 44 30 45
REMARK SMILES IDX 29 46 31 47 35 48 32 49 37 50 33 51 34 52
REMARK H PARENT 14 2 40 37
ROOT
ATOM      1  N   UNL     1      22.021   5.940   3.242  1.00  0.00    -0.336 N 
ATOM      2  H   UNL     1      21.530   5.713   4.099  1.00  0.00     0.168 HD
ENDROOT
BRANCH   1   3
ATOM      3  C   UNL     1      22.659   7.189   3.387  1.00  0.00     0.130 A 
ATOM      4  C   UNL     1      23.883   9.673   3.701  1.00  0.00     0.056 A 
ATOM      5  C   UNL     1      24.550   8.455   3.831  1.00  0.00     0.139 A 
ATOM      6  C   UNL     1      22.530   9.588   3.371  1.00  0.00     0.031 A 
ATOM      7  N   UNL     1      23.978   7.240   3.683  1.00  0.00    -0.237 NA
ATOM      8  C   UNL     1      21.918   8.346   3.190  1.00  0.00     0.049 A 
BRANCH   4   9
ATOM      9  N   UNL     1      24.461  10.944   3.895  1.00  0.00    -0.367 N 
ATOM     10  C   UNL     1      25.930  13.062   4.165  1.00  0.00     0.060 C 
ATOM     11  C   UNL     1      25.252  13.013   2.804  1.00  0.00     0.040 C 
ATOM     12  C   UNL     1      24.922  12.869   5.313  1.00  0.00     0.044 C 
ATOM     13  C   UNL     1      24.578  11.650   2.602  1.00  0.00     0.118 C 
ATOM     14  C   UNL     1      23.885  11.764   4.984  1.00  0.00     0.080 C 
ATOM     15  C   UNL     1      23.558  10.975   6.266  1.00  0.00     0.031 C 
BRANCH  10  16
ATOM     16  N   UNL     1      26.799  14.341   4.276  1.00  0.00    -0.301 NA
BRANCH  16  17
ATOM     17  C   UNL     1      27.212  14.831   2.887  1.00  0.00     0.081 C 
ATOM     18  C   UNL     1      27.226  16.356   2.855  1.00  0.00     0.021 C 
ENDBRANCH  16  17
BRANCH  16  19
ATOM     19  C   UNL     1      27.990  14.323   5.224  1.00  0.00     0.081 C 
ATOM     20  C   UNL     1      27.736  15.211   6.429  1.00  0.00     0.021 C 
ENDBRANCH  16  19
ENDBRANCH  10  16
ENDBRANCH   4   9
ENDBRANCH   1   3
BRANCH   1  21
ATOM     21  C   UNL     1      21.291   5.675   2.090  1.00  0.00     0.107 A 
ATOM     22  C   UNL     1      19.801   5.375   2.253  1.00  0.00     0.274 A 
ATOM     23  C   UNL     1      21.795   5.709   0.843  1.00  0.00     0.042 A 
ATOM     24  N   UNL     1      19.104   5.071   1.079  1.00  0.00    -0.316 N 
ATOM     25  C   UNL     1      20.994   5.422  -0.324  1.00  0.00     0.001 A 
ATOM     26  C   UNL     1      19.694   5.118  -0.164  1.00  0.00     0.097 A 
ATOM     27  O   UNL     1      19.249   5.453   3.349  1.00  0.00    -0.267 OA
ATOM     28  C   UNL     1      17.674   4.813   1.157  1.00  0.00     0.153 C 
BRANCH  25  29
ATOM     29  C   UNL     1      21.512   5.386  -1.706  1.00  0.00    -0.006 A 
ATOM     30  C   UNL     1      20.983   4.415  -2.562  1.00  0.00     0.029 A 
ATOM     31  C   UNL     1      22.441   6.328  -2.200  1.00  0.00     0.028 A 
ATOM     32  C   UNL     1      21.334   4.448  -3.891  1.00  0.00     0.114 A 
ATOM     33  C   UNL     1      22.725   6.272  -3.572  1.00  0.00     0.141 A 
ATOM     34  N   UNL     1      22.145   5.381  -4.419  1.00  0.00    -0.238 NA
BRANCH  31  35
ATOM     35  C   UNL     1      23.004   7.403  -1.314  1.00  0.00     0.196 C 
BRANCH  35  36
ATOM     36  O   UNL     1      24.336   7.058  -0.946  1.00  0.00    -0.392 OA
ATOM     37  H   UNL     1      24.866   7.106  -1.768  1.00  0.00     0.211 HD
ENDBRANCH  35  36
ENDBRANCH  31  35
BRANCH  33  38
ATOM     38  N   UNL     1      23.574   7.235  -4.174  1.00  0.00    -0.289 N 
ATOM     39  C   UNL     1      22.992   8.000  -5.283  1.00  0.00     0.149 C 
ATOM     40  C   UNL     1      24.956   6.990  -4.181  1.00  0.00     0.276 C 
ATOM     41  C   UNL     1      23.736   9.311  -5.492  1.00  0.00     0.144 C 
ATOM     42  C   UNL     1      25.715   7.901  -5.035  1.00  0.00     0.108 A 
ATOM     43  N   UNL     1      25.145   9.017  -5.635  1.00  0.00    -0.339 N 
ATOM     44  C   UNL     1      27.058   7.860  -5.433  1.00  0.00     0.037 A 
ATOM     45  C   UNL     1      26.088   9.681  -6.327  1.00  0.00     0.022 A 
ATOM     46  C   UNL     1      27.256   8.974  -6.264  1.00  0.00    -0.026 A 
ATOM     47  C   UNL     1      26.128  10.924  -7.118  1.00  0.00     0.061 C 
ATOM     48  C   UNL     1      28.324   9.623  -7.057  1.00  0.00     0.044 C 
ATOM     49  C   UNL     1      27.537  10.783  -7.832  1.00  0.00    -0.026 C 
ATOM     50  O   UNL     1      25.489   6.108  -3.512  1.00  0.00    -0.267 OA
ATOM     51  C   UNL     1      27.322  10.402  -9.308  1.00  0.00     0.012 C 
ATOM     52  C   UNL     1      28.317  12.098  -7.759  1.00  0.00     0.012 C 
ENDBRANCH  33  38
ENDBRANCH  25  29
ENDBRANCH   1  21
TORSDOF 10
ENDMDL
MODEL 5
REMARK VINA RESULT:   -10.187      4.763      8.784
REMARK INTER + INTRA:         -15.831
REMARK INTER:                 -14.298
REMARK INTRA:                  -1.533
REMARK UNBOUND:                 0.014
REMARK SMILES CCN(CC)[C@@H]1CCN(c2ccc(Nc3cc(-c4ccnc(N5CCn6c(cc7c6CC(C)(C)C7)C5=O)c4CO)cn(C)c3=O)nc2)[C@@H](C)C1
REMARK SMILES IDX 14 1 13 3 10 4 47 5 11 6 46 7 12 8 9 9 6 10 7 11 50 12 8 13
REMARK SMILES IDX 48 14 49 15 3 16 2 17 1 18 4 19 5 20 15 21 44 22 16 23 42 24
REMARK SMILES IDX 17 25 41 26 45 27 43 28 18 29 19 30 38 31 20 32 22 33 21 34
REMARK SMILES IDX 39 35 40 36 23 38 24 39 36 40 25 41 27 42 26 43 28 44 30 45
REMARK SMILES IDX 29 46 31 47 35 48 32 49 37 50 33 51 34 52
REMARK H PARENT 14 2 40 37
ROOT
ATOM      1  N   UNL     1      27.741   9.686  -0.143  1.00  0.00    -0.336 N 
ATOM      2  H   UNL     1      27.590  10.003  -1.093  1.00  0.00     0.168 HD
ENDROOT
BRANCH   1   3
ATOM      3  C   UNL     1      26.540   9.144   0.363  1.00  0.00     0.130 A 
ATOM      4  C   UNL     1      24.185   8.082   1.405  1.00  0.00     0.056 A 
ATOM      5  C   UNL     1      24.231   8.946   0.313  1.00  0.00     0.139 A 
ATOM      6  C   UNL     1      25.420   7.741   1.958  1.00  0.00     0.031 A 
ATOM      7  N   UNL     1      25.361   9.473  -0.210  1.00  0.00    -0.237 NA
ATOM      8  C   UNL     1      26.604   8.253   1.425  1.00  0.00     0.049 A 
BRANCH   4   9
ATOM      9  N   UNL     1      23.009   7.561   1.985  1.00  0.00    -0.367 N 
ATOM     10  C   UNL     1      20.713   6.532   2.606  1.00  0.00     0.060 C 
ATOM     11  C   UNL     1      21.844   5.525   2.753  1.00  0.00     0.040 C 
ATOM     12  C   UNL     1      21.015   7.844   3.353  1.00  0.00     0.044 C 
ATOM     13  C   UNL     1      23.140   6.101   2.170  1.00  0.00     0.118 C 
ATOM     14  C   UNL     1      22.492   8.279   3.171  1.00  0.00     0.080 C 
ATOM     15  C   UNL     1      22.561   9.814   3.062  1.00  0.00     0.031 C 
BRANCH  10  16
ATOM     16  N   UNL     1      19.363   5.869   2.981  1.00  0.00    -0.301 NA
BRANCH  16  17
ATOM     17  C   UNL     1      19.354   5.469   4.457  1.00  0.00     0.081 C 
ATOM     18  C   UNL     1      17.934   5.549   5.010  1.00  0.00     0.021 C 
ENDBRANCH  16  17
BRANCH  16  19
ATOM     19  C   UNL     1      18.849   4.735   2.106  1.00  0.00     0.081 C 
ATOM     20  C   UNL     1      18.635   5.206   0.679  1.00  0.00     0.021 C 
ENDBRANCH  16  19
ENDBRANCH  10  16
ENDBRANCH   4   9
ENDBRANCH   1   3
BRANCH   1  21
ATOM     21  C   UNL     1      28.471  10.576   0.636  1.00  0.00     0.107 A 
ATOM     22  C   UNL     1      29.970  10.687   0.360  1.00  0.00     0.274 A 
ATOM     23  C   UNL     1      27.941  11.374   1.580  1.00  0.00     0.042 A 
ATOM     24  N   UNL     1      30.683  11.559   1.189  1.00  0.00    -0.316 N 
ATOM     25  C   UNL     1      28.745  12.282   2.367  1.00  0.00     0.001 A 
ATOM     26  C   UNL     1      30.070  12.339   2.144  1.00  0.00     0.097 A 
ATOM     27  O   UNL     1      30.495  10.082  -0.572  1.00  0.00    -0.267 OA
ATOM     28  C   UNL     1      32.108  11.743   0.957  1.00  0.00     0.153 C 
BRANCH  25  29
ATOM     29  C   UNL     1      28.223  13.132   3.455  1.00  0.00    -0.006 A 
ATOM     30  C   UNL     1      28.368  14.515   3.310  1.00  0.00     0.029 A 
ATOM     31  C   UNL     1      27.527  12.611   4.568  1.00  0.00     0.028 A 
ATOM     32  C   UNL     1      27.764  15.340   4.230  1.00  0.00     0.114 A 
ATOM     33  C   UNL     1      26.949  13.542   5.441  1.00  0.00     0.141 A 
ATOM     34  N   UNL     1      27.019  14.887   5.253  1.00  0.00    -0.238 NA
BRANCH  31  35
ATOM     35  C   UNL     1      27.327  11.131   4.735  1.00  0.00     0.196 C 
BRANCH  35  36
ATOM     36  O   UNL     1      28.394  10.599   5.515  1.00  0.00    -0.392 OA
ATOM     37  H   UNL     1      29.210  10.740   4.991  1.00  0.00     0.211 HD
ENDBRANCH  35  36
ENDBRANCH  31  35
BRANCH  33  38
ATOM     38  N   UNL     1      26.155  13.112   6.533  1.00  0.00    -0.289 N 
ATOM     39  C   UNL     1      24.737  12.871   6.241  1.00  0.00     0.149 C 
ATOM     40  C   UNL     1      26.509  13.541   7.822  1.00  0.00     0.276 C 
ATOM     41  C   UNL     1      24.117  11.938   7.272  1.00  0.00     0.144 C 
ATOM     42  C   UNL     1      25.499  13.259   8.840  1.00  0.00     0.108 A 
ATOM     43  N   UNL     1      24.378  12.477   8.589  1.00  0.00    -0.339 N 
ATOM     44  C   UNL     1      25.413  13.685  10.172  1.00  0.00     0.037 A 
ATOM     45  C   UNL     1      23.653  12.363   9.714  1.00  0.00     0.022 A 
ATOM     46  C   UNL     1      24.231  13.129  10.687  1.00  0.00    -0.026 A 
ATOM     47  C   UNL     1      22.421  11.652  10.102  1.00  0.00     0.061 C 
ATOM     48  C   UNL     1      23.446  13.095  11.942  1.00  0.00     0.044 C 
ATOM     49  C   UNL     1      22.112  12.323  11.505  1.00  0.00    -0.026 C 
ATOM     50  O   UNL     1      27.582  14.081   8.083  1.00  0.00    -0.267 OA
ATOM     51  C   UNL     1      20.940  13.307  11.350  1.00  0.00     0.012 C 
ATOM     52  C   UNL     1      21.746  11.261  12.545  1.00  0.00     0.012 C 
ENDBRANCH  33  38
ENDBRANCH  25  29
ENDBRANCH   1  21
TORSDOF 10
ENDMDL
MODEL 6
REMARK VINA RESULT:   -10.053      3.979      9.830
REMARK INTER + INTRA:         -15.622
REMARK INTER:                 -14.210
REMARK INTRA:                  -1.412
REMARK UNBOUND:                 0.014
REMARK SMILES CCN(CC)[C@@H]1CCN(c2ccc(Nc3cc(-c4ccnc(N5CCn6c(cc7c6CC(C)(C)C7)C5=O)c4CO)cn(C)c3=O)nc2)[C@@H](C)C1
REMARK SMILES IDX 14 1 13 3 10 4 47 5 11 6 46 7 12 8 9 9 6 10 7 11 50 12 8 13
REMARK SMILES IDX 48 14 49 15 3 16 2 17 1 18 4 19 5 20 15 21 44 22 16 23 42 24
REMARK SMILES IDX 17 25 41 26 45 27 43 28 18 29 19 30 38 31 20 32 22 33 21 34
REMARK SMILES IDX 39 35 40 36 23 38 24 39 36 40 25 41 27 42 26 43 28 44 30 45
REMARK SMILES IDX 29 46 31 47 35 48 32 49 37 50 33 51 34 52
REMARK H PARENT 14 2 40 37
ROOT
ATOM      1  N   UNL     1      20.434   6.480   2.920  1.00  0.00    -0.336 N 
ATOM      2  H   UNL     1      19.426   6.581   2.892  1.00  0.00     0.168 HD
ENDROOT
BRANCH   1   3
ATOM      3  C   UNL     1      20.962   7.337   3.908  1.00  0.00     0.130 A 
ATOM      4  C   UNL     1      22.046   9.011   5.853  1.00  0.00     0.056 A 
ATOM      5  C   UNL     1      21.136   9.432   4.885  1.00  0.00     0.139 A 
ATOM      6  C   UNL     1      22.383   7.659   5.817  1.00  0.00     0.031 A 
ATOM      7  N   UNL     1      20.597   8.639   3.933  1.00  0.00    -0.237 NA
ATOM      8  C   UNL     1      21.825   6.810   4.859  1.00  0.00     0.049 A 
BRANCH   4   9
ATOM      9  N   UNL     1      22.646   9.841   6.823  1.00  0.00    -0.367 N 
ATOM     10  C   UNL     1      23.326  11.563   8.636  1.00  0.00     0.060 C 
ATOM     11  C   UNL     1      23.066  10.188   9.231  1.00  0.00     0.040 C 
ATOM     12  C   UNL     1      24.313  11.498   7.457  1.00  0.00     0.044 C 
ATOM     13  C   UNL     1      22.458   9.262   8.170  1.00  0.00     0.118 C 
ATOM     14  C   UNL     1      24.031  10.280   6.540  1.00  0.00     0.080 C 
ATOM     15  C   UNL     1      24.282  10.677   5.073  1.00  0.00     0.031 C 
BRANCH  10  16
ATOM     16  N   UNL     1      23.722  12.558   9.758  1.00  0.00    -0.301 NA
BRANCH  16  17
ATOM     17  C   UNL     1      22.521  12.859  10.656  1.00  0.00     0.081 C 
ATOM     18  C   UNL     1      22.904  12.664  12.120  1.00  0.00     0.021 C 
ENDBRANCH  16  17
BRANCH  16  19
ATOM     19  C   UNL     1      24.444  13.839   9.364  1.00  0.00     0.081 C 
ATOM     20  C   UNL     1      25.859  13.854   9.914  1.00  0.00     0.021 C 
ENDBRANCH  16  19
ENDBRANCH  10  16
ENDBRANCH   4   9
ENDBRANCH   1   3
BRANCH   1  21
ATOM     21  C   UNL     1      21.028   6.436   1.665  1.00  0.00     0.107 A 
ATOM     22  C   UNL     1      20.389   5.528   0.614  1.00  0.00     0.274 A 
ATOM     23  C   UNL     1      22.095   7.170   1.300  1.00  0.00     0.042 A 
ATOM     24  N   UNL     1      21.036   5.474  -0.625  1.00  0.00    -0.316 N 
ATOM     25  C   UNL     1      22.679   7.086  -0.019  1.00  0.00     0.001 A 
ATOM     26  C   UNL     1      22.134   6.252  -0.921  1.00  0.00     0.097 A 
ATOM     27  O   UNL     1      19.340   4.929   0.840  1.00  0.00    -0.267 OA
ATOM     28  C   UNL     1      20.460   4.659  -1.684  1.00  0.00     0.153 C 
BRANCH  25  29
ATOM     29  C   UNL     1      23.885   7.823  -0.448  1.00  0.00    -0.006 A 
ATOM     30  C   UNL     1      24.032   8.064  -1.817  1.00  0.00     0.029 A 
ATOM     31  C   UNL     1      24.826   8.348   0.464  1.00  0.00     0.028 A 
ATOM     32  C   UNL     1      25.063   8.872  -2.235  1.00  0.00     0.114 A 
ATOM     33  C   UNL     1      25.835   9.161  -0.070  1.00  0.00     0.141 A 
ATOM     34  N   UNL     1      25.928   9.464  -1.392  1.00  0.00    -0.238 NA
BRANCH  31  35
ATOM     35  C   UNL     1      24.678   8.132   1.945  1.00  0.00     0.196 C 
BRANCH  35  36
ATOM     36  O   UNL     1      25.371   6.945   2.317  1.00  0.00    -0.392 OA
ATOM     37  H   UNL     1      25.425   6.956   3.295  1.00  0.00     0.211 HD
ENDBRANCH  35  36
ENDBRANCH  31  35
BRANCH  33  38
ATOM     38  N   UNL     1      26.769   9.805   0.778  1.00  0.00    -0.289 N 
ATOM     39  C   UNL     1      27.820   8.951   1.343  1.00  0.00     0.149 C 
ATOM     40  C   UNL     1      26.336  10.915   1.522  1.00  0.00     0.276 C 
ATOM     41  C   UNL     1      29.026   9.777   1.768  1.00  0.00     0.144 C 
ATOM     42  C   UNL     1      27.284  11.350   2.545  1.00  0.00     0.108 A 
ATOM     43  N   UNL     1      28.570  10.832   2.646  1.00  0.00    -0.339 N 
ATOM     44  C   UNL     1      27.134  12.283   3.580  1.00  0.00     0.037 A 
ATOM     45  C   UNL     1      29.219  11.444   3.651  1.00  0.00     0.022 A 
ATOM     46  C   UNL     1      28.355  12.302   4.273  1.00  0.00    -0.026 A 
ATOM     47  C   UNL     1      30.579  11.378   4.216  1.00  0.00     0.061 C 
ATOM     48  C   UNL     1      28.993  12.968   5.430  1.00  0.00     0.044 C 
ATOM     49  C   UNL     1      30.387  12.191   5.564  1.00  0.00    -0.026 C 
ATOM     50  O   UNL     1      25.269  11.489   1.319  1.00  0.00    -0.267 OA
ATOM     51  C   UNL     1      30.352  11.209   6.748  1.00  0.00     0.012 C 
ATOM     52  C   UNL     1      31.534  13.184   5.767  1.00  0.00     0.012 C 
ENDBRANCH  33  38
ENDBRANCH  25  29
ENDBRANCH   1  21
TORSDOF 10
ENDMDL
MODEL 7
REMARK VINA RESULT:    -9.868      3.016     12.709
REMARK INTER + INTRA:         -15.333
REMARK INTER:                 -15.067
REMARK INTRA:                  -0.267
REMARK UNBOUND:                 0.014
REMARK SMILES CCN(CC)[C@@H]1CCN(c2ccc(Nc3cc(-c4ccnc(N5CCn6c(cc7c6CC(C)(C)C7)C5=O)c4CO)cn(C)c3=O)nc2)[C@@H](C)C1
REMARK SMILES IDX 14 1 13 3 10 4 47 5 11 6 46 7 12 8 9 9 6 10 7 11 50 12 8 13
REMARK SMILES IDX 48 14 49 15 3 16 2 17 1 18 4 19 5 20 15 21 44 22 16 23 42 24
REMARK SMILES IDX 17 25 41 26 45 27 43 28 18 29 19 30 38 31 20 32 22 33 21 34
REMARK SMILES IDX 39 35 40 36 23 38 24 39 36 40 25 41 27 42 26 43 28 44 30 45
REMARK SMILES IDX 29 46 31 47 35 48 32 49 37 50 33 51 34 52
REMARK H PARENT 14 2 40 37
ROOT
ATOM      1  N   UNL     1      20.545   6.081   4.607  1.00  0.00    -0.336 N 
ATOM      2  H   UNL     1      19.687   6.063   5.145  1.00  0.00     0.168 HD
ENDROOT
BRANCH   1   3
ATOM      3  C   UNL     1      21.354   7.145   5.058  1.00  0.00     0.130 A 
ATOM      4  C   UNL     1      22.914   9.272   5.955  1.00  0.00     0.056 A 
ATOM      5  C   UNL     1      23.136   7.942   6.308  1.00  0.00     0.139 A 
ATOM      6  C   UNL     1      21.850   9.495   5.080  1.00  0.00     0.031 A 
ATOM      7  N   UNL     1      22.394   6.895   5.885  1.00  0.00    -0.237 NA
ATOM      8  C   UNL     1      21.080   8.429   4.610  1.00  0.00     0.049 A 
BRANCH   4   9
ATOM      9  N   UNL     1      23.655  10.376   6.425  1.00  0.00    -0.367 N 
ATOM     10  C   UNL     1      25.393  12.137   7.195  1.00  0.00     0.060 C 
ATOM     11  C   UNL     1      24.870  12.432   5.797  1.00  0.00     0.040 C 
ATOM     12  C   UNL     1      24.248  11.930   8.203  1.00  0.00     0.044 C 
ATOM     13  C   UNL     1      24.020  11.258   5.296  1.00  0.00     0.118 C 
ATOM     14  C   UNL     1      23.096  11.088   7.595  1.00  0.00     0.080 C 
ATOM     15  C   UNL     1      22.513  10.164   8.680  1.00  0.00     0.031 C 
BRANCH  10  16
ATOM     16  N   UNL     1      26.432  13.212   7.608  1.00  0.00    -0.301 NA
BRANCH  16  17
ATOM     17  C   UNL     1      27.651  12.558   8.259  1.00  0.00     0.081 C 
ATOM     18  C   UNL     1      28.225  11.489   7.334  1.00  0.00     0.021 C 
ENDBRANCH  16  17
BRANCH  16  19
ATOM     19  C   UNL     1      25.951  14.403   8.424  1.00  0.00     0.081 C 
ATOM     20  C   UNL     1      26.814  14.598   9.658  1.00  0.00     0.021 C 
ENDBRANCH  16  19
ENDBRANCH  10  16
ENDBRANCH   4   9
ENDBRANCH   1   3
BRANCH   1  21
ATOM     21  C   UNL     1      20.356   5.894   3.244  1.00  0.00     0.107 A 
ATOM     22  C   UNL     1      19.066   5.206   2.798  1.00  0.00     0.274 A 
ATOM     23  C   UNL     1      21.207   6.319   2.291  1.00  0.00     0.042 A 
ATOM     24  N   UNL     1      18.926   4.996   1.423  1.00  0.00    -0.316 N 
ATOM     25  C   UNL     1      20.966   6.098   0.884  1.00  0.00     0.001 A 
ATOM     26  C   UNL     1      19.848   5.452   0.507  1.00  0.00     0.097 A 
ATOM     27  O   UNL     1      18.189   4.909   3.606  1.00  0.00    -0.267 OA
ATOM     28  C   UNL     1      17.705   4.380   0.926  1.00  0.00     0.153 C 
BRANCH  25  29
ATOM     29  C   UNL     1      21.896   6.487  -0.194  1.00  0.00    -0.006 A 
ATOM     30  C   UNL     1      22.790   7.527   0.078  1.00  0.00     0.029 A 
ATOM     31  C   UNL     1      21.964   5.808  -1.430  1.00  0.00     0.028 A 
ATOM     32  C   UNL     1      23.766   7.816  -0.848  1.00  0.00     0.114 A 
ATOM     33  C   UNL     1      23.000   6.181  -2.298  1.00  0.00     0.141 A 
ATOM     34  N   UNL     1      23.920   7.134  -1.996  1.00  0.00    -0.238 NA
BRANCH  31  35
ATOM     35  C   UNL     1      21.038   4.665  -1.740  1.00  0.00     0.196 C 
BRANCH  35  36
ATOM     36  O   UNL     1      20.207   5.021  -2.840  1.00  0.00    -0.392 OA
ATOM     37  H   UNL     1      20.108   4.210  -3.380  1.00  0.00     0.211 HD
ENDBRANCH  35  36
ENDBRANCH  31  35
BRANCH  33  38
ATOM     38  N   UNL     1      23.202   5.491  -3.519  1.00  0.00    -0.289 N 
ATOM     39  C   UNL     1      24.160   4.379  -3.478  1.00  0.00     0.149 C 
ATOM     40  C   UNL     1      23.059   6.207  -4.718  1.00  0.00     0.276 C 
ATOM     41  C   UNL     1      23.915   3.405  -4.622  1.00  0.00     0.144 C 
ATOM     42  C   UNL     1      23.529   5.486  -5.899  1.00  0.00     0.108 A 
ATOM     43  N   UNL     1      23.910   4.150  -5.862  1.00  0.00    -0.339 N 
ATOM     44  C   UNL     1      23.714   5.929  -7.216  1.00  0.00     0.037 A 
ATOM     45  C   UNL     1      24.260   3.751  -7.096  1.00  0.00     0.022 A 
ATOM     46  C   UNL     1      24.198   4.827  -7.938  1.00  0.00    -0.026 A 
ATOM     47  C   UNL     1      24.697   2.482  -7.705  1.00  0.00     0.061 C 
ATOM     48  C   UNL     1      24.628   4.467  -9.308  1.00  0.00     0.044 C 
ATOM     49  C   UNL     1      25.199   2.982  -9.123  1.00  0.00    -0.026 C 
ATOM     50  O   UNL     1      22.559   7.327  -4.780  1.00  0.00    -0.267 OA
ATOM     51  C   UNL     1      26.737   2.983  -9.146  1.00  0.00     0.012 C 
ATOM     52  C   UNL     1      24.679   2.069 -10.236  1.00  0.00     0.012 C 
ENDBRANCH  33  38
ENDBRANCH  25  29
ENDBRANCH   1  21
TORSDOF 10
ENDMDL
MODEL 8
REMARK VINA RESULT:    -9.644      4.783      9.879
REMARK INTER + INTRA:         -14.985
REMARK INTER:                 -13.396
REMARK INTRA:                  -1.588
REMARK UNBOUND:                 0.014
REMARK SMILES CCN(CC)[C@@H]1CCN(c2ccc(Nc3cc(-c4ccnc(N5CCn6c(cc7c6CC(C)(C)C7)C5=O)c4CO)cn(C)c3=O)nc2)[C@@H](C)C1
REMARK SMILES IDX 14 1 13 3 10 4 47 5 11 6 46 7 12 8 9 9 6 10 7 11 50 12 8 13
REMARK SMILES IDX 48 14 49 15 3 16 2 17 1 18 4 19 5 20 15 21 44 22 16 23 42 24
REMARK SMILES IDX 17 25 41 26 45 27 43 28 18 29 19 30 38 31 20 32 22 33 21 34
REMARK SMILES IDX 39 35 40 36 23 38 24 39 36 40 25 41 27 42 26 43 28 44 30 45
REMARK SMILES IDX 29 46 31 47 35 48 32 49 37 50 33 51 34 52
REMARK H PARENT 14 2 40 37
ROOT
ATOM      1  N   UNL     1      22.546   9.150   7.487  1.00  0.00    -0.336 N 
ATOM      2  H   UNL     1      22.843   8.372   8.065  1.00  0.00     0.168 HD
ENDROOT
BRANCH   1   3
ATOM      3  C   UNL     1      22.435   8.719   6.148  1.00  0.00     0.130 A 
ATOM      4  C   UNL     1      22.209   7.823   3.520  1.00  0.00     0.056 A 
ATOM      5  C   UNL     1      21.566   8.958   4.012  1.00  0.00     0.139 A 
ATOM      6  C   UNL     1      23.019   7.145   4.430  1.00  0.00     0.031 A 
ATOM      7  N   UNL     1      21.662   9.411   5.281  1.00  0.00    -0.237 NA
ATOM      8  C   UNL     1      23.153   7.603   5.743  1.00  0.00     0.049 A 
BRANCH   4   9
ATOM      9  N   UNL     1      22.082   7.319   2.209  1.00  0.00    -0.367 N 
ATOM     10  C   UNL     1      22.050   6.005  -0.025  1.00  0.00     0.060 C 
ATOM     11  C   UNL     1      20.694   5.982   0.665  1.00  0.00     0.040 C 
ATOM     12  C   UNL     1      22.594   7.438  -0.168  1.00  0.00     0.044 C 
ATOM     13  C   UNL     1      20.811   6.575   2.074  1.00  0.00     0.118 C 
ATOM     14  C   UNL     1      22.343   8.276   1.112  1.00  0.00     0.080 C 
ATOM     15  C   UNL     1      23.546   9.207   1.356  1.00  0.00     0.031 C 
BRANCH  10  16
ATOM     16  N   UNL     1      21.982   5.203  -1.350  1.00  0.00    -0.301 NA
BRANCH  16  17
ATOM     17  C   UNL     1      22.751   5.927  -2.456  1.00  0.00     0.081 C 
ATOM     18  C   UNL     1      23.983   5.117  -2.849  1.00  0.00     0.021 C 
ENDBRANCH  16  17
BRANCH  16  19
ATOM     19  C   UNL     1      20.618   4.743  -1.845  1.00  0.00     0.081 C 
ATOM     20  C   UNL     1      20.673   4.370  -3.316  1.00  0.00     0.021 C 
ENDBRANCH  16  19
ENDBRANCH  10  16
ENDBRANCH   4   9
ENDBRANCH   1   3
BRANCH   1  21
ATOM     21  C   UNL     1      23.203  10.341   7.770  1.00  0.00     0.107 A 
ATOM     22  C   UNL     1      22.630  11.215   8.885  1.00  0.00     0.274 A 
ATOM     23  C   UNL     1      24.331  10.752   7.162  1.00  0.00     0.042 A 
ATOM     24  N   UNL     1      23.289  12.426   9.115  1.00  0.00    -0.316 N 
ATOM     25  C   UNL     1      24.976  12.003   7.490  1.00  0.00     0.001 A 
ATOM     26  C   UNL     1      24.437  12.783   8.443  1.00  0.00     0.097 A 
ATOM     27  O   UNL     1      21.679  10.839   9.566  1.00  0.00    -0.267 OA
ATOM     28  C   UNL     1      22.820  13.290  10.188  1.00  0.00     0.153 C 
BRANCH  25  29
ATOM     29  C   UNL     1      26.177  12.527   6.811  1.00  0.00    -0.006 A 
ATOM     30  C   UNL     1      27.253  12.908   7.619  1.00  0.00     0.029 A 
ATOM     31  C   UNL     1      26.301  12.579   5.405  1.00  0.00     0.028 A 
ATOM     32  C   UNL     1      28.437  13.261   7.015  1.00  0.00     0.114 A 
ATOM     33  C   UNL     1      27.554  12.949   4.897  1.00  0.00     0.141 A 
ATOM     34  N   UNL     1      28.624  13.237   5.684  1.00  0.00    -0.238 NA
BRANCH  31  35
ATOM     35  C   UNL     1      25.174  12.146   4.509  1.00  0.00     0.196 C 
BRANCH  35  36
ATOM     36  O   UNL     1      24.577  13.297   3.920  1.00  0.00    -0.392 OA
ATOM     37  H   UNL     1      24.020  12.967   3.184  1.00  0.00     0.211 HD
ENDBRANCH  35  36
ENDBRANCH  31  35
BRANCH  33  38
ATOM     38  N   UNL     1      27.799  12.938   3.501  1.00  0.00    -0.289 N 
ATOM     39  C   UNL     1      28.768  11.943   3.026  1.00  0.00     0.149 C 
ATOM     40  C   UNL     1      27.681  14.147   2.797  1.00  0.00     0.276 C 
ATOM     41  C   UNL     1      28.567  11.648   1.546  1.00  0.00     0.144 C 
ATOM     42  C   UNL     1      28.192  14.090   1.429  1.00  0.00     0.108 A 
ATOM     43  N   UNL     1      28.587  12.902   0.825  1.00  0.00    -0.339 N 
ATOM     44  C   UNL     1      28.409  15.116   0.500  1.00  0.00     0.037 A 
ATOM     45  C   UNL     1      28.976  13.152  -0.437  1.00  0.00     0.022 A 
ATOM     46  C   UNL     1      28.925  14.501  -0.652  1.00  0.00    -0.026 A 
ATOM     47  C   UNL     1      29.445  12.337  -1.572  1.00  0.00     0.061 C 
ATOM     48  C   UNL     1      29.398  14.851  -2.010  1.00  0.00     0.044 C 
ATOM     49  C   UNL     1      29.980  13.462  -2.553  1.00  0.00    -0.026 C 
ATOM     50  O   UNL     1      27.169  15.159   3.272  1.00  0.00    -0.267 OA
ATOM     51  C   UNL     1      31.518  13.468  -2.526  1.00  0.00     0.012 C 
ATOM     52  C   UNL     1      29.502  13.206  -3.985  1.00  0.00     0.012 C 
ENDBRANCH  33  38
ENDBRANCH  25  29
ENDBRANCH   1  21
TORSDOF 10
ENDMDL
MODEL 9
REMARK VINA RESULT:    -9.537      4.591     10.188
REMARK INTER + INTRA:         -14.819
REMARK INTER:                 -14.178
REMARK INTRA:                  -0.642
REMARK UNBOUND:                 0.014
REMARK SMILES CCN(CC)[C@@H]1CCN(c2ccc(Nc3cc(-c4ccnc(N5CCn6c(cc7c6CC(C)(C)C7)C5=O)c4CO)cn(C)c3=O)nc2)[C@@H](C)C1
REMARK SMILES IDX 14 1 13 3 10 4 47 5 11 6 46 7 12 8 9 9 6 10 7 11 50 12 8 13
REMARK SMILES IDX 48 14 49 15 3 16 2 17 1 18 4 19 5 20 15 21 44 22 16 23 42 24
REMARK SMILES IDX 17 25 41 26 45 27 43 28 18 29 19 30 38 31 20 32 22 33 21 34
REMARK SMILES IDX 39 35 40 36 23 38 24 39 36 40 25 41 27 42 26 43 28 44 30 45
REMARK SMILES IDX 29 46 31 47 35 48 32 49 37 50 33 51 34 52
REMARK H PARENT 14 2 40 37
ROOT
ATOM      1  N   UNL     1      23.100   9.458   9.289  1.00  0.00    -0.336 N 
ATOM      2  H   UNL     1      23.881   9.004   9.747  1.00  0.00     0.168 HD
ENDROOT
BRANCH   1   3
ATOM      3  C   UNL     1      22.870   8.841   8.041  1.00  0.00     0.130 A 
ATOM      4  C   UNL     1      22.440   7.659   5.555  1.00  0.00     0.056 A 
ATOM      5  C   UNL     1      22.823   6.954   6.695  1.00  0.00     0.139 A 
ATOM      6  C   UNL     1      22.252   9.030   5.728  1.00  0.00     0.031 A 
ATOM      7  N   UNL     1      23.037   7.506   7.910  1.00  0.00    -0.237 NA
ATOM      8  C   UNL     1      22.444   9.624   6.977  1.00  0.00     0.049 A 
BRANCH   4   9
ATOM      9  N   UNL     1      22.257   7.099   4.274  1.00  0.00    -0.367 N 
ATOM     10  C   UNL     1      22.088   6.479   1.763  1.00  0.00     0.060 C 
ATOM     11  C   UNL     1      23.321   5.871   2.415  1.00  0.00     0.040 C 
ATOM     12  C   UNL     1      20.807   6.163   2.556  1.00  0.00     0.044 C 
ATOM     13  C   UNL     1      23.501   6.437   3.828  1.00  0.00     0.118 C 
ATOM     14  C   UNL     1      21.036   6.284   4.085  1.00  0.00     0.080 C 
ATOM     15  C   UNL     1      19.774   6.872   4.744  1.00  0.00     0.031 C 
BRANCH  10  16
ATOM     16  N   UNL     1      22.035   6.087   0.264  1.00  0.00    -0.301 NA
BRANCH  16  17
ATOM     17  C   UNL     1      22.481   7.257  -0.613  1.00  0.00     0.081 C 
ATOM     18  C   UNL     1      22.779   8.476   0.255  1.00  0.00     0.021 C 
ENDBRANCH  16  17
BRANCH  16  19
ATOM     19  C   UNL     1      20.756   5.460  -0.272  1.00  0.00     0.081 C 
ATOM     20  C   UNL     1      20.919   5.056  -1.726  1.00  0.00     0.021 C 
ENDBRANCH  16  19
ENDBRANCH  10  16
ENDBRANCH   4   9
ENDBRANCH   1   3
BRANCH   1  21
ATOM     21  C   UNL     1      23.128  10.844   9.372  1.00  0.00     0.107 A 
ATOM     22  C   UNL     1      22.020  11.526  10.174  1.00  0.00     0.274 A 
ATOM     23  C   UNL     1      24.088  11.620   8.835  1.00  0.00     0.042 A 
ATOM     24  N   UNL     1      22.053  12.924  10.202  1.00  0.00    -0.316 N 
ATOM     25  C   UNL     1      24.071  13.061   8.947  1.00  0.00     0.001 A 
ATOM     26  C   UNL     1      23.066  13.651   9.618  1.00  0.00     0.097 A 
ATOM     27  O   UNL     1      21.186  10.871  10.796  1.00  0.00    -0.267 OA
ATOM     28  C   UNL     1      21.050  13.636  10.979  1.00  0.00     0.153 C 
BRANCH  25  29
ATOM     29  C   UNL     1      25.064  13.959   8.324  1.00  0.00    -0.006 A 
ATOM     30  C   UNL     1      25.481  15.065   9.072  1.00  0.00     0.029 A 
ATOM     31  C   UNL     1      25.650  13.698   7.067  1.00  0.00     0.028 A 
ATOM     32  C   UNL     1      26.510  15.837   8.585  1.00  0.00     0.114 A 
ATOM     33  C   UNL     1      26.693  14.547   6.670  1.00  0.00     0.141 A 
ATOM     34  N   UNL     1      27.154  15.571   7.435  1.00  0.00    -0.238 NA
BRANCH  31  35
ATOM     35  C   UNL     1      25.246  12.500   6.254  1.00  0.00     0.196 C 
BRANCH  35  36
ATOM     36  O   UNL     1      24.093  12.824   5.484  1.00  0.00    -0.392 OA
ATOM     37  H   UNL     1      24.416  13.332   4.711  1.00  0.00     0.211 HD
ENDBRANCH  35  36
ENDBRANCH  31  35
BRANCH  33  38
ATOM     38  N   UNL     1      27.401  14.307   5.466  1.00  0.00    -0.289 N 
ATOM     39  C   UNL     1      26.662  14.561   4.224  1.00  0.00     0.149 C 
ATOM     40  C   UNL     1      28.391  13.310   5.466  1.00  0.00     0.276 C 
ATOM     41  C   UNL     1      27.615  14.795   3.060  1.00  0.00     0.144 C 
ATOM     42  C   UNL     1      28.884  12.965   4.135  1.00  0.00     0.108 A 
ATOM     43  N   UNL     1      28.539  13.684   2.996  1.00  0.00    -0.339 N 
ATOM     44  C   UNL     1      29.718  11.917   3.722  1.00  0.00     0.037 A 
ATOM     45  C   UNL     1      29.167  13.159   1.930  1.00  0.00     0.022 A 
ATOM     46  C   UNL     1      29.857  12.049   2.331  1.00  0.00    -0.026 A 
ATOM     47  C   UNL     1      29.250  13.485   0.495  1.00  0.00     0.061 C 
ATOM     48  C   UNL     1      30.528  11.387   1.190  1.00  0.00     0.044 C 
ATOM     49  C   UNL     1      29.940  12.176  -0.074  1.00  0.00    -0.026 C 
ATOM     50  O   UNL     1      28.827  12.791   6.490  1.00  0.00    -0.267 OA
ATOM     51  C   UNL     1      28.887  11.325  -0.806  1.00  0.00     0.012 C 
ATOM     52  C   UNL     1      31.064  12.535  -1.049  1.00  0.00     0.012 C 
ENDBRANCH  33  38
ENDBRANCH  25  29
ENDBRANCH   1  21
TORSDOF 10
ENDMDL
