MODEL 1
REMARK VINA RESULT:   -12.622      0.000      0.000
REMARK INTER + INTRA:         -18.460
REMARK INTER:                 -18.157
REMARK INTRA:                  -0.304
REMARK UNBOUND:                -0.304
REMARK SMILES C[C@H]1CN(c2ccccc2)CCN1c1ccc(Nc2cc(-c3ccnc(N4CCn5c(cc6c5CC(C)(C)C6)C4=O)c3CO)cn(C)c2=O)nc1
REMARK SMILES IDX 45 1 21 2 20 3 19 4 48 5 46 6 49 7 47 8 22 9 26 10 42 11
REMARK SMILES IDX 25 12 24 13 23 14 27 15 31 16 40 17 30 18 32 19 29 20 34 21
REMARK SMILES IDX 33 22 28 23 35 24 39 25 36 26 41 27 37 28 38 29 43 30 44 31
REMARK SMILES IDX 18 33 17 35 16 36 50 37 15 38 51 39 14 40 13 41 2 42 12 43
REMARK SMILES IDX 3 44 11 45 4 46 1 47 5 48 6 49 10 50 7 51 9 52 8 53
REMARK H PARENT 44 32 18 34
ROOT
ATOM      1  C   UNL     1      19.839   5.273   3.050  1.00  0.00     0.097 A 
ATOM      2  C   UNL     1      20.926   5.732   2.413  1.00  0.00     0.001 A 
ATOM      3  C   UNL     1      20.935   5.734   0.964  1.00  0.00     0.042 A 
ATOM      4  C   UNL     1      19.843   5.449   0.231  1.00  0.00     0.107 A 
ATOM      5  C   UNL     1      18.613   4.923   0.963  1.00  0.00     0.274 A 
ATOM      6  N   UNL     1      18.729   4.818   2.357  1.00  0.00    -0.316 N 
ATOM      7  O   UNL     1      17.595   4.592   0.356  1.00  0.00    -0.267 OA
ATOM      8  C   UNL     1      17.586   4.316   3.106  1.00  0.00     0.153 C 
ENDROOT
BRANCH   2   9
ATOM      9  C   UNL     1      22.010   6.371   3.199  1.00  0.00    -0.006 A 
ATOM     10  C   UNL     1      22.953   7.671   5.000  1.00  0.00     0.141 A 
ATOM     11  C   UNL     1      21.807   7.183   4.341  1.00  0.00     0.028 A 
ATOM     12  N   UNL     1      24.206   7.459   4.512  1.00  0.00    -0.238 NA
ATOM     13  C   UNL     1      24.364   6.690   3.421  1.00  0.00     0.114 A 
ATOM     14  C   UNL     1      23.310   6.122   2.747  1.00  0.00     0.029 A 
BRANCH  10  15
ATOM     15  N   UNL     1      22.916   8.492   6.166  1.00  0.00    -0.289 N 
ATOM     16  C   UNL     1      22.836   8.899   8.528  1.00  0.00     0.108 A 
ATOM     17  C   UNL     1      22.899   7.922   7.454  1.00  0.00     0.276 C 
ATOM     18  N   UNL     1      22.809  10.266   8.309  1.00  0.00    -0.339 N 
ATOM     19  C   UNL     1      22.766   8.697   9.910  1.00  0.00     0.037 A 
ATOM     20  C   UNL     1      22.838  10.838   6.983  1.00  0.00     0.144 C 
ATOM     21  C   UNL     1      22.721  10.894   9.495  1.00  0.00     0.022 A 
ATOM     22  C   UNL     1      22.681   9.964  10.497  1.00  0.00    -0.026 A 
ATOM     23  C   UNL     1      23.486   9.846   6.030  1.00  0.00     0.149 C 
ATOM     24  C   UNL     1      22.604  12.296   9.929  1.00  0.00     0.061 C 
ATOM     25  C   UNL     1      22.541  10.601  11.821  1.00  0.00     0.044 C 
ATOM     26  C   UNL     1      22.149  12.095  11.434  1.00  0.00    -0.026 C 
ATOM     27  O   UNL     1      22.923   6.710   7.669  1.00  0.00    -0.267 OA
ATOM     28  C   UNL     1      22.842  13.086  12.363  1.00  0.00     0.012 C 
ATOM     29  C   UNL     1      20.623  12.274  11.518  1.00  0.00     0.012 C 
ENDBRANCH  10  15
BRANCH  11  30
ATOM     30  C   UNL     1      20.406   7.551   4.749  1.00  0.00     0.196 C 
BRANCH  30  31
ATOM     31  O   UNL     1      20.098   8.873   4.345  1.00  0.00    -0.392 OA
ATOM     32  H   UNL     1      20.259   9.439   5.134  1.00  0.00     0.211 HD
ENDBRANCH  30  31
ENDBRANCH  11  30
ENDBRANCH   2   9
BRANCH   4  33
ATOM     33  N   UNL     1      19.760   5.620  -1.159  1.00  0.00    -0.336 N 
ATOM     34  H   UNL     1      19.043   5.004  -1.536  1.00  0.00     0.168 HD
BRANCH  33  35
ATOM     35  C   UNL     1      20.938   5.316  -1.903  1.00  0.00     0.130 A 
ATOM     36  C   UNL     1      22.148   5.914  -1.543  1.00  0.00     0.049 A 
ATOM     37  N   UNL     1      20.861   4.468  -2.944  1.00  0.00    -0.237 NA
ATOM     38  C   UNL     1      23.290   5.675  -2.308  1.00  0.00     0.031 A 
ATOM     39  C   UNL     1      21.986   4.266  -3.683  1.00  0.00     0.139 A 
ATOM     40  C   UNL     1      23.225   4.860  -3.432  1.00  0.00     0.056 A 
BRANCH  40  41
ATOM     41  N   UNL     1      24.393   4.682  -4.198  1.00  0.00    -0.364 N 
ATOM     42  C   UNL     1      24.207   4.519  -5.677  1.00  0.00     0.098 C 
ATOM     43  C   UNL     1      25.222   3.587  -3.612  1.00  0.00     0.138 C 
ATOM     44  C   UNL     1      25.603   4.411  -6.364  1.00  0.00     0.141 C 
ATOM     45  C   UNL     1      26.590   3.489  -4.326  1.00  0.00     0.138 C 
ATOM     46  N   UNL     1      26.412   3.308  -5.785  1.00  0.00    -0.368 N 
ATOM     47  C   UNL     1      23.472   5.729  -6.277  1.00  0.00     0.033 C 
BRANCH  46  48
ATOM     48  C   UNL     1      26.379   2.021  -6.317  1.00  0.00     0.037 A 
ATOM     49  C   UNL     1      27.140   0.982  -5.745  1.00  0.00     0.026 A 
ATOM     50  C   UNL     1      25.653   1.681  -7.467  1.00  0.00     0.026 A 
ATOM     51  C   UNL     1      27.167  -0.315  -6.282  1.00  0.00     0.002 A 
ATOM     52  C   UNL     1      25.666   0.386  -8.010  1.00  0.00     0.002 A 
ATOM     53  C   UNL     1      26.429  -0.613  -7.416  1.00  0.00     0.000 A 
ENDBRANCH  46  48
ENDBRANCH  40  41
ENDBRANCH  33  35
ENDBRANCH   4  33
TORSDOF 8
ENDMDL
MODEL 2
REMARK VINA RESULT:   -12.609      2.479      3.834
REMARK INTER + INTRA:         -18.441
REMARK INTER:                 -18.575
REMARK INTRA:                   0.133
REMARK UNBOUND:                -0.304
REMARK SMILES C[C@H]1CN(c2ccccc2)CCN1c1ccc(Nc2cc(-c3ccnc(N4CCn5c(cc6c5CC(C)(C)C6)C4=O)c3CO)cn(C)c2=O)nc1
REMARK SMILES IDX 45 1 21 2 20 3 19 4 48 5 46 6 49 7 47 8 22 9 26 10 42 11
REMARK SMILES IDX 25 12 24 13 23 14 27 15 31 16 40 17 30 18 32 19 29 20 34 21
REMARK SMILES IDX 33 22 28 23 35 24 39 25 36 26 41 27 37 28 38 29 43 30 44 31
REMARK SMILES IDX 18 33 17 35 16 36 50 37 15 38 51 39 14 40 13 41 2 42 12 43
REMARK SMILES IDX 3 44 11 45 4 46 1 47 5 48 6 49 10 50 7 51 9 52 8 53
REMARK H PARENT 44 32 18 34
ROOT
ATOM      1  C   UNL     1      19.916   5.428   2.998  1.00  0.00     0.097 A 
ATOM      2  C   UNL     1      21.110   5.675   2.439  1.00  0.00     0.001 A 
ATOM      3  C   UNL     1      21.276   5.434   1.020  1.00  0.00     0.042 A 
ATOM      4  C   UNL     1      20.246   5.130   0.209  1.00  0.00     0.107 A 
ATOM      5  C   UNL     1      18.893   4.846   0.855  1.00  0.00     0.274 A 
ATOM      6  N   UNL     1      18.845   4.966   2.252  1.00  0.00    -0.316 N 
ATOM      7  O   UNL     1      17.917   4.511   0.185  1.00  0.00    -0.267 OA
ATOM      8  C   UNL     1      17.580   4.701   2.922  1.00  0.00     0.153 C 
ENDROOT
BRANCH   2   9
ATOM      9  C   UNL     1      22.165   6.336   3.244  1.00  0.00    -0.006 A 
ATOM     10  C   UNL     1      23.047   7.663   5.058  1.00  0.00     0.141 A 
ATOM     11  C   UNL     1      21.924   7.152   4.376  1.00  0.00     0.028 A 
ATOM     12  N   UNL     1      24.313   7.468   4.599  1.00  0.00    -0.238 NA
ATOM     13  C   UNL     1      24.508   6.694   3.517  1.00  0.00     0.114 A 
ATOM     14  C   UNL     1      23.479   6.105   2.823  1.00  0.00     0.029 A 
BRANCH  10  15
ATOM     15  N   UNL     1      22.970   8.491   6.217  1.00  0.00    -0.289 N 
ATOM     16  C   UNL     1      22.826   8.911   8.573  1.00  0.00     0.108 A 
ATOM     17  C   UNL     1      22.928   7.928   7.508  1.00  0.00     0.276 C 
ATOM     18  N   UNL     1      22.787  10.276   8.345  1.00  0.00    -0.339 N 
ATOM     19  C   UNL     1      22.725   8.716   9.955  1.00  0.00     0.037 A 
ATOM     20  C   UNL     1      22.842  10.840   7.017  1.00  0.00     0.144 C 
ATOM     21  C   UNL     1      22.662  10.910   9.525  1.00  0.00     0.022 A 
ATOM     22  C   UNL     1      22.609   9.986  10.531  1.00  0.00    -0.026 A 
ATOM     23  C   UNL     1      23.526   9.851   6.087  1.00  0.00     0.149 C 
ATOM     24  C   UNL     1      22.516  12.313   9.947  1.00  0.00     0.061 C 
ATOM     25  C   UNL     1      22.428  10.629  11.847  1.00  0.00     0.044 C 
ATOM     26  C   UNL     1      22.026  12.115  11.442  1.00  0.00    -0.026 C 
ATOM     27  O   UNL     1      22.963   6.718   7.732  1.00  0.00    -0.267 OA
ATOM     28  C   UNL     1      22.684  13.121  12.380  1.00  0.00     0.012 C 
ATOM     29  C   UNL     1      20.496  12.275  11.486  1.00  0.00     0.012 C 
ENDBRANCH  10  15
BRANCH  11  30
ATOM     30  C   UNL     1      20.508   7.500   4.750  1.00  0.00     0.196 C 
BRANCH  30  31
ATOM     31  O   UNL     1      20.190   8.816   4.336  1.00  0.00    -0.392 OA
ATOM     32  H   UNL     1      19.209   8.846   4.265  1.00  0.00     0.211 HD
ENDBRANCH  30  31
ENDBRANCH  11  30
ENDBRANCH   2   9
BRANCH   4  33
ATOM     33  N   UNL     1      20.333   5.072  -1.189  1.00  0.00    -0.336 N 
ATOM     34  H   UNL     1      20.232   4.108  -1.498  1.00  0.00     0.168 HD
BRANCH  33  35
ATOM     35  C   UNL     1      21.560   5.518  -1.763  1.00  0.00     0.130 A 
ATOM     36  C   UNL     1      22.249   4.677  -2.641  1.00  0.00     0.049 A 
ATOM     37  N   UNL     1      22.038   6.733  -1.441  1.00  0.00    -0.237 NA
ATOM     38  C   UNL     1      23.484   5.078  -3.154  1.00  0.00     0.031 A 
ATOM     39  C   UNL     1      23.252   7.091  -1.940  1.00  0.00     0.139 A 
ATOM     40  C   UNL     1      24.036   6.298  -2.781  1.00  0.00     0.056 A 
BRANCH  40  41
ATOM     41  N   UNL     1      25.304   6.642  -3.289  1.00  0.00    -0.364 N 
ATOM     42  C   UNL     1      25.881   7.947  -2.827  1.00  0.00     0.098 C 
ATOM     43  C   UNL     1      25.304   6.522  -4.777  1.00  0.00     0.138 C 
ATOM     44  C   UNL     1      27.309   8.121  -3.427  1.00  0.00     0.141 C 
ATOM     45  C   UNL     1      26.728   6.720  -5.346  1.00  0.00     0.138 C 
ATOM     46  N   UNL     1      27.295   8.017  -4.908  1.00  0.00    -0.368 N 
ATOM     47  C   UNL     1      25.998   7.986  -1.294  1.00  0.00     0.033 C 
BRANCH  46  48
ATOM     48  C   UNL     1      27.140   9.140  -5.718  1.00  0.00     0.037 A 
ATOM     49  C   UNL     1      28.188  10.068  -5.879  1.00  0.00     0.026 A 
ATOM     50  C   UNL     1      25.940   9.457  -6.372  1.00  0.00     0.026 A 
ATOM     51  C   UNL     1      28.049  11.233  -6.651  1.00  0.00     0.002 A 
ATOM     52  C   UNL     1      25.791  10.615  -7.151  1.00  0.00     0.002 A 
ATOM     53  C   UNL     1      26.849  11.507  -7.287  1.00  0.00     0.000 A 
ENDBRANCH  46  48
ENDBRANCH  40  41
ENDBRANCH  33  35
ENDBRANCH   4  33
TORSDOF 8
ENDMDL
MODEL 3
REMARK VINA RESULT:   -12.329      2.244      3.495
REMARK INTER + INTRA:         -18.038
REMARK INTER:                 -18.176
REMARK INTRA:                   0.138
REMARK UNBOUND:                -0.304
REMARK SMILES C[C@H]1CN(c2ccccc2)CCN1c1ccc(Nc2cc(-c3ccnc(N4CCn5c(cc6c5CC(C)(C)C6)C4=O)c3CO)cn(C)c2=O)nc1
REMARK SMILES IDX 45 1 21 2 20 3 19 4 48 5 46 6 49 7 47 8 22 9 26 10 42 11
REMARK SMILES IDX 25 12 24 13 23 14 27 15 31 16 40 17 30 18 32 19 29 20 34 21
REMARK SMILES IDX 33 22 28 23 35 24 39 25 36 26 41 27 37 28 38 29 43 30 44 31
REMARK SMILES IDX 18 33 17 35 16 36 50 37 15 38 51 39 14 40 13 41 2 42 12 43
REMARK SMILES IDX 3 44 11 45 4 46 1 47 5 48 6 49 10 50 7 51 9 52 8 53
REMARK H PARENT 44 32 18 34
ROOT
ATOM      1  C   UNL     1      19.692   5.362   3.178  1.00  0.00     0.097 A 
ATOM      2  C   UNL     1      20.821   5.672   2.525  1.00  0.00     0.001 A 
ATOM      3  C   UNL     1      20.877   5.461   1.092  1.00  0.00     0.042 A 
ATOM      4  C   UNL     1      19.796   5.122   0.366  1.00  0.00     0.107 A 
ATOM      5  C   UNL     1      18.517   4.766   1.118  1.00  0.00     0.274 A 
ATOM      6  N   UNL     1      18.583   4.862   2.516  1.00  0.00    -0.316 N 
ATOM      7  O   UNL     1      17.503   4.397   0.526  1.00  0.00    -0.267 OA
ATOM      8  C   UNL     1      17.392   4.528   3.285  1.00  0.00     0.153 C 
ENDROOT
BRANCH   2   9
ATOM      9  C   UNL     1      21.911   6.368   3.251  1.00  0.00    -0.006 A 
ATOM     10  C   UNL     1      22.881   7.717   5.002  1.00  0.00     0.141 A 
ATOM     11  C   UNL     1      21.729   7.167   4.406  1.00  0.00     0.028 A 
ATOM     12  N   UNL     1      24.114   7.574   4.444  1.00  0.00    -0.238 NA
ATOM     13  C   UNL     1      24.252   6.815   3.343  1.00  0.00     0.114 A 
ATOM     14  C   UNL     1      23.196   6.191   2.726  1.00  0.00     0.029 A 
BRANCH  10  15
ATOM     15  N   UNL     1      22.865   8.534   6.171  1.00  0.00    -0.289 N 
ATOM     16  C   UNL     1      22.823   8.933   8.535  1.00  0.00     0.108 A 
ATOM     17  C   UNL     1      22.866   7.960   7.457  1.00  0.00     0.276 C 
ATOM     18  N   UNL     1      22.796  10.301   8.322  1.00  0.00    -0.339 N 
ATOM     19  C   UNL     1      22.774   8.725   9.918  1.00  0.00     0.037 A 
ATOM     20  C   UNL     1      22.805  10.877   6.998  1.00  0.00     0.144 C 
ATOM     21  C   UNL     1      22.728  10.924   9.511  1.00  0.00     0.022 A 
ATOM     22  C   UNL     1      22.702   9.991  10.510  1.00  0.00    -0.026 A 
ATOM     23  C   UNL     1      23.436   9.887   6.031  1.00  0.00     0.149 C 
ATOM     24  C   UNL     1      22.622  12.325   9.952  1.00  0.00     0.061 C 
ATOM     25  C   UNL     1      22.584  10.624  11.839  1.00  0.00     0.044 C 
ATOM     26  C   UNL     1      22.190  12.120  11.464  1.00  0.00    -0.026 C 
ATOM     27  O   UNL     1      22.890   6.746   7.668  1.00  0.00    -0.267 OA
ATOM     28  C   UNL     1      22.901  13.106  12.385  1.00  0.00     0.012 C 
ATOM     29  C   UNL     1      20.666  12.302  11.572  1.00  0.00     0.012 C 
ENDBRANCH  10  15
BRANCH  11  30
ATOM     30  C   UNL     1      20.335   7.458   4.893  1.00  0.00     0.196 C 
BRANCH  30  31
ATOM     31  O   UNL     1      19.952   8.780   4.556  1.00  0.00    -0.392 OA
ATOM     32  H   UNL     1      19.449   9.119   5.330  1.00  0.00     0.211 HD
ENDBRANCH  30  31
ENDBRANCH  11  30
ENDBRANCH   2   9
BRANCH   4  33
ATOM     33  N   UNL     1      19.766   5.091  -1.036  1.00  0.00    -0.336 N 
ATOM     34  H   UNL     1      19.435   4.181  -1.350  1.00  0.00     0.168 HD
BRANCH  33  35
ATOM     35  C   UNL     1      21.015   5.278  -1.698  1.00  0.00     0.130 A 
ATOM     36  C   UNL     1      22.020   6.015  -1.065  1.00  0.00     0.049 A 
ATOM     37  N   UNL     1      21.201   4.753  -2.922  1.00  0.00    -0.237 NA
ATOM     38  C   UNL     1      23.220   6.260  -1.734  1.00  0.00     0.031 A 
ATOM     39  C   UNL     1      22.373   5.023  -3.558  1.00  0.00     0.139 A 
ATOM     40  C   UNL     1      23.412   5.792  -3.028  1.00  0.00     0.056 A 
BRANCH  40  41
ATOM     41  N   UNL     1      24.622   6.101  -3.680  1.00  0.00    -0.364 N 
ATOM     42  C   UNL     1      25.805   5.244  -3.340  1.00  0.00     0.098 C 
ATOM     43  C   UNL     1      24.919   7.556  -3.532  1.00  0.00     0.138 C 
ATOM     44  C   UNL     1      27.024   5.682  -4.208  1.00  0.00     0.141 C 
ATOM     45  C   UNL     1      26.145   7.957  -4.386  1.00  0.00     0.138 C 
ATOM     46  N   UNL     1      27.322   7.127  -4.040  1.00  0.00    -0.368 N 
ATOM     47  C   UNL     1      25.516   3.763  -3.634  1.00  0.00     0.033 C 
BRANCH  46  48
ATOM     48  C   UNL     1      28.221   7.581  -3.078  1.00  0.00     0.037 A 
ATOM     49  C   UNL     1      29.041   6.680  -2.369  1.00  0.00     0.026 A 
ATOM     50  C   UNL     1      28.335   8.929  -2.707  1.00  0.00     0.026 A 
ATOM     51  C   UNL     1      29.923   7.099  -1.360  1.00  0.00     0.002 A 
ATOM     52  C   UNL     1      29.218   9.362  -1.705  1.00  0.00     0.002 A 
ATOM     53  C   UNL     1      30.012   8.442  -1.028  1.00  0.00     0.000 A 
ENDBRANCH  46  48
ENDBRANCH  40  41
ENDBRANCH  33  35
ENDBRANCH   4  33
TORSDOF 8
ENDMDL
MODEL 4
REMARK VINA RESULT:   -11.662      3.864     11.050
REMARK INTER + INTRA:         -17.079
REMARK INTER:                 -15.940
REMARK INTRA:                  -1.139
REMARK UNBOUND:                -0.304
REMARK SMILES C[C@H]1CN(c2ccccc2)CCN1c1ccc(Nc2cc(-c3ccnc(N4CCn5c(cc6c5CC(C)(C)C6)C4=O)c3CO)cn(C)c2=O)nc1
REMARK SMILES IDX 45 1 21 2 20 3 19 4 48 5 46 6 49 7 47 8 22 9 26 10 42 11
REMARK SMILES IDX 25 12 24 13 23 14 27 15 31 16 40 17 30 18 32 19 29 20 34 21
REMARK SMILES IDX 33 22 28 23 35 24 39 25 36 26 41 27 37 28 38 29 43 30 44 31
REMARK SMILES IDX 18 33 17 35 16 36 50 37 15 38 51 39 14 40 13 41 2 42 12 43
REMARK SMILES IDX 3 44 11 45 4 46 1 47 5 48 6 49 10 50 7 51 9 52 8 53
REMARK H PARENT 44 32 18 34
ROOT
ATOM      1  C   UNL     1      20.947   5.443   0.456  1.00  0.00     0.097 A 
ATOM      2  C   UNL     1      20.586   6.021   1.610  1.00  0.00     0.001 A 
ATOM      3  C   UNL     1      21.258   7.238   2.020  1.00  0.00     0.042 A 
ATOM      4  C   UNL     1      22.112   7.901   1.218  1.00  0.00     0.107 A 
ATOM      5  C   UNL     1      22.521   7.232  -0.091  1.00  0.00     0.274 A 
ATOM      6  N   UNL     1      21.931   5.987  -0.353  1.00  0.00    -0.316 N 
ATOM      7  O   UNL     1      23.337   7.752  -0.852  1.00  0.00    -0.267 OA
ATOM      8  C   UNL     1      22.290   5.302  -1.587  1.00  0.00     0.153 C 
ENDROOT
BRANCH   2   9
ATOM      9  C   UNL     1      19.408   5.498   2.346  1.00  0.00    -0.006 A 
ATOM     10  C   UNL     1      17.826   5.367   4.164  1.00  0.00     0.141 A 
ATOM     11  C   UNL     1      19.001   5.934   3.630  1.00  0.00     0.028 A 
ATOM     12  N   UNL     1      17.158   4.369   3.525  1.00  0.00    -0.238 NA
ATOM     13  C   UNL     1      17.575   3.972   2.310  1.00  0.00     0.114 A 
ATOM     14  C   UNL     1      18.673   4.509   1.684  1.00  0.00     0.029 A 
BRANCH  10  15
ATOM     15  N   UNL     1      17.282   5.707   5.438  1.00  0.00    -0.289 N 
ATOM     16  C   UNL     1      17.063   5.524   7.819  1.00  0.00     0.108 A 
ATOM     17  C   UNL     1      17.740   5.079   6.613  1.00  0.00     0.276 C 
ATOM     18  N   UNL     1      16.069   6.488   7.819  1.00  0.00    -0.339 N 
ATOM     19  C   UNL     1      17.230   5.096   9.140  1.00  0.00     0.037 A 
ATOM     20  C   UNL     1      15.616   7.132   6.608  1.00  0.00     0.144 C 
ATOM     21  C   UNL     1      15.626   6.654   9.078  1.00  0.00     0.022 A 
ATOM     22  C   UNL     1      16.306   5.811   9.912  1.00  0.00    -0.026 A 
ATOM     23  C   UNL     1      16.723   7.066   5.569  1.00  0.00     0.149 C 
ATOM     24  C   UNL     1      14.577   7.466   9.718  1.00  0.00     0.061 C 
ATOM     25  C   UNL     1      15.828   5.924  11.304  1.00  0.00     0.044 C 
ATOM     26  C   UNL     1      14.477   6.748  11.128  1.00  0.00    -0.026 C 
ATOM     27  O   UNL     1      18.623   4.221   6.634  1.00  0.00    -0.267 OA
ATOM     28  C   UNL     1      14.317   7.759  12.257  1.00  0.00     0.012 C 
ATOM     29  C   UNL     1      13.276   5.786  11.108  1.00  0.00     0.012 C 
ENDBRANCH  10  15
BRANCH  11  30
ATOM     30  C   UNL     1      19.863   6.906   4.390  1.00  0.00     0.196 C 
BRANCH  30  31
ATOM     31  O   UNL     1      20.720   6.220   5.286  1.00  0.00    -0.392 OA
ATOM     32  H   UNL     1      20.947   5.371   4.843  1.00  0.00     0.211 HD
ENDBRANCH  30  31
ENDBRANCH  11  30
ENDBRANCH   2   9
BRANCH   4  33
ATOM     33  N   UNL     1      22.636   9.170   1.502  1.00  0.00    -0.336 N 
ATOM     34  H   UNL     1      23.522   9.289   1.016  1.00  0.00     0.168 HD
BRANCH  33  35
ATOM     35  C   UNL     1      22.926   9.440   2.871  1.00  0.00     0.130 A 
ATOM     36  C   UNL     1      24.095   8.924   3.438  1.00  0.00     0.049 A 
ATOM     37  N   UNL     1      22.066  10.177   3.597  1.00  0.00    -0.237 NA
ATOM     38  C   UNL     1      24.352   9.127   4.795  1.00  0.00     0.031 A 
ATOM     39  C   UNL     1      22.331  10.343   4.921  1.00  0.00     0.139 A 
ATOM     40  C   UNL     1      23.445   9.822   5.585  1.00  0.00     0.056 A 
BRANCH  40  41
ATOM     41  N   UNL     1      23.724   9.965   6.958  1.00  0.00    -0.364 N 
ATOM     42  C   UNL     1      22.827   9.226   7.906  1.00  0.00     0.098 C 
ATOM     43  C   UNL     1      23.839  11.412   7.304  1.00  0.00     0.138 C 
ATOM     44  C   UNL     1      23.331   9.440   9.366  1.00  0.00     0.141 C 
ATOM     45  C   UNL     1      24.320  11.593   8.763  1.00  0.00     0.138 C 
ATOM     46  N   UNL     1      23.425  10.882   9.705  1.00  0.00    -0.368 N 
ATOM     47  C   UNL     1      22.836   7.717   7.612  1.00  0.00     0.033 C 
BRANCH  46  48
ATOM     48  C   UNL     1      22.361  11.567  10.287  1.00  0.00     0.037 A 
ATOM     49  C   UNL     1      21.694  12.595   9.592  1.00  0.00     0.026 A 
ATOM     50  C   UNL     1      21.921  11.334  11.598  1.00  0.00     0.026 A 
ATOM     51  C   UNL     1      20.649  13.337  10.165  1.00  0.00     0.002 A 
ATOM     52  C   UNL     1      20.872  12.064  12.181  1.00  0.00     0.002 A 
ATOM     53  C   UNL     1      20.238  13.070  11.461  1.00  0.00     0.000 A 
ENDBRANCH  46  48
ENDBRANCH  40  41
ENDBRANCH  33  35
ENDBRANCH   4  33
TORSDOF 8
ENDMDL
MODEL 5
REMARK VINA RESULT:   -10.608      4.970     11.566
REMARK INTER + INTRA:         -15.563
REMARK INTER:                 -15.096
REMARK INTRA:                  -0.468
REMARK UNBOUND:                -0.304
REMARK SMILES C[C@H]1CN(c2ccccc2)CCN1c1ccc(Nc2cc(-c3ccnc(N4CCn5c(cc6c5CC(C)(C)C6)C4=O)c3CO)cn(C)c2=O)nc1
REMARK SMILES IDX 45 1 21 2 20 3 19 4 48 5 46 6 49 7 47 8 22 9 26 10 42 11
REMARK SMILES IDX 25 12 24 13 23 14 27 15 31 16 40 17 30 18 32 19 29 20 34 21
REMARK SMILES IDX 33 22 28 23 35 24 39 25 36 26 41 27 37 28 38 29 43 30 44 31
REMARK SMILES IDX 18 33 17 35 16 36 50 37 15 38 51 39 14 40 13 41 2 42 12 43
REMARK SMILES IDX 3 44 11 45 4 46 1 47 5 48 6 49 10 50 7 51 9 52 8 53
REMARK H PARENT 44 32 18 34
ROOT
ATOM      1  C   UNL     1      22.101   6.764   1.626  1.00  0.00     0.097 A 
ATOM      2  C   UNL     1      21.430   7.131   2.728  1.00  0.00     0.001 A 
ATOM      3  C   UNL     1      21.660   8.453   3.274  1.00  0.00     0.042 A 
ATOM      4  C   UNL     1      22.391   9.386   2.637  1.00  0.00     0.107 A 
ATOM      5  C   UNL     1      23.155   8.958   1.387  1.00  0.00     0.274 A 
ATOM      6  N   UNL     1      22.990   7.620   0.998  1.00  0.00    -0.316 N 
ATOM      7  O   UNL     1      23.886   9.740   0.779  1.00  0.00    -0.267 OA
ATOM      8  C   UNL     1      23.701   7.156  -0.185  1.00  0.00     0.153 C 
ENDROOT
BRANCH   2   9
ATOM      9  C   UNL     1      20.362   6.247   3.254  1.00  0.00    -0.006 A 
ATOM     10  C   UNL     1      18.594   5.581   4.758  1.00  0.00     0.141 A 
ATOM     11  C   UNL     1      19.609   6.502   4.426  1.00  0.00     0.028 A 
ATOM     12  N   UNL     1      18.402   4.439   4.043  1.00  0.00    -0.238 NA
ATOM     13  C   UNL     1      19.139   4.224   2.939  1.00  0.00     0.114 A 
ATOM     14  C   UNL     1      20.109   5.094   2.505  1.00  0.00     0.029 A 
BRANCH  10  15
ATOM     15  N   UNL     1      17.747   5.702   5.898  1.00  0.00    -0.289 N 
ATOM     16  C   UNL     1      15.763   6.382   7.061  1.00  0.00     0.108 A 
ATOM     17  C   UNL     1      16.486   6.322   5.801  1.00  0.00     0.276 C 
ATOM     18  N   UNL     1      16.260   5.866   8.246  1.00  0.00    -0.339 N 
ATOM     19  C   UNL     1      14.517   6.952   7.343  1.00  0.00     0.037 A 
ATOM     20  C   UNL     1      17.550   5.224   8.329  1.00  0.00     0.144 C 
ATOM     21  C   UNL     1      15.373   6.105   9.228  1.00  0.00     0.022 A 
ATOM     22  C   UNL     1      14.299   6.778   8.715  1.00  0.00    -0.026 A 
ATOM     23  C   UNL     1      17.926   4.690   6.956  1.00  0.00     0.149 C 
ATOM     24  C   UNL     1      15.332   5.864  10.680  1.00  0.00     0.061 C 
ATOM     25  C   UNL     1      13.312   7.103   9.763  1.00  0.00     0.044 C 
ATOM     26  C   UNL     1      14.132   6.813  11.096  1.00  0.00    -0.026 C 
ATOM     27  O   UNL     1      16.026   6.786   4.757  1.00  0.00    -0.267 OA
ATOM     28  C   UNL     1      13.237   6.154  12.141  1.00  0.00     0.012 C 
ATOM     29  C   UNL     1      14.710   8.127  11.651  1.00  0.00     0.012 C 
ENDBRANCH  10  15
BRANCH  11  30
ATOM     30  C   UNL     1      19.968   7.676   5.297  1.00  0.00     0.196 C 
BRANCH  30  31
ATOM     31  O   UNL     1      21.047   7.351   6.156  1.00  0.00    -0.392 OA
ATOM     32  H   UNL     1      21.744   6.966   5.578  1.00  0.00     0.211 HD
ENDBRANCH  30  31
ENDBRANCH  11  30
ENDBRANCH   2   9
BRANCH   4  33
ATOM     33  N   UNL     1      22.483  10.727   3.038  1.00  0.00    -0.336 N 
ATOM     34  H   UNL     1      22.830  11.290   2.265  1.00  0.00     0.168 HD
BRANCH  33  35
ATOM     35  C   UNL     1      23.368  11.001   4.122  1.00  0.00     0.130 A 
ATOM     36  C   UNL     1      23.256  10.259   5.301  1.00  0.00     0.049 A 
ATOM     37  N   UNL     1      24.286  11.976   3.996  1.00  0.00    -0.237 NA
ATOM     38  C   UNL     1      24.072  10.566   6.390  1.00  0.00     0.031 A 
ATOM     39  C   UNL     1      25.056  12.267   5.080  1.00  0.00     0.139 A 
ATOM     40  C   UNL     1      24.980  11.616   6.313  1.00  0.00     0.056 A 
BRANCH  40  41
ATOM     41  N   UNL     1      25.751  11.918   7.452  1.00  0.00    -0.364 N 
ATOM     42  C   UNL     1      25.398  13.176   8.188  1.00  0.00     0.098 C 
ATOM     43  C   UNL     1      27.204  11.855   7.111  1.00  0.00     0.138 C 
ATOM     44  C   UNL     1      26.301  13.306   9.452  1.00  0.00     0.141 C 
ATOM     45  C   UNL     1      28.074  12.008   8.380  1.00  0.00     0.138 C 
ATOM     46  N   UNL     1      27.742  13.259   9.101  1.00  0.00    -0.368 N 
ATOM     47  C   UNL     1      23.931  13.152   8.648  1.00  0.00     0.033 C 
BRANCH  46  48
ATOM     48  C   UNL     1      28.466  14.417   8.828  1.00  0.00     0.037 A 
ATOM     49  C   UNL     1      29.856  14.366   8.595  1.00  0.00     0.026 A 
ATOM     50  C   UNL     1      27.896  15.699   8.824  1.00  0.00     0.026 A 
ATOM     51  C   UNL     1      30.623  15.519   8.364  1.00  0.00     0.002 A 
ATOM     52  C   UNL     1      28.651  16.858   8.587  1.00  0.00     0.002 A 
ATOM     53  C   UNL     1      30.020  16.766   8.360  1.00  0.00     0.000 A 
ENDBRANCH  46  48
ENDBRANCH  40  41
ENDBRANCH  33  35
ENDBRANCH   4  33
TORSDOF 8
ENDMDL
MODEL 6
REMARK VINA RESULT:   -10.355      3.668     12.443
REMARK INTER + INTRA:         -15.199
REMARK INTER:                 -14.093
REMARK INTRA:                  -1.106
REMARK UNBOUND:                -0.304
REMARK SMILES C[C@H]1CN(c2ccccc2)CCN1c1ccc(Nc2cc(-c3ccnc(N4CCn5c(cc6c5CC(C)(C)C6)C4=O)c3CO)cn(C)c2=O)nc1
REMARK SMILES IDX 45 1 21 2 20 3 19 4 48 5 46 6 49 7 47 8 22 9 26 10 42 11
REMARK SMILES IDX 25 12 24 13 23 14 27 15 31 16 40 17 30 18 32 19 29 20 34 21
REMARK SMILES IDX 33 22 28 23 35 24 39 25 36 26 41 27 37 28 38 29 43 30 44 31
REMARK SMILES IDX 18 33 17 35 16 36 50 37 15 38 51 39 14 40 13 41 2 42 12 43
REMARK SMILES IDX 3 44 11 45 4 46 1 47 5 48 6 49 10 50 7 51 9 52 8 53
REMARK H PARENT 44 32 18 34
ROOT
ATOM      1  C   UNL     1      19.411   5.144   0.171  1.00  0.00     0.097 A 
ATOM      2  C   UNL     1      20.689   5.485  -0.048  1.00  0.00     0.001 A 
ATOM      3  C   UNL     1      21.528   5.807   1.090  1.00  0.00     0.042 A 
ATOM      4  C   UNL     1      21.129   5.622   2.362  1.00  0.00     0.107 A 
ATOM      5  C   UNL     1      19.672   5.239   2.601  1.00  0.00     0.274 A 
ATOM      6  N   UNL     1      18.884   5.079   1.451  1.00  0.00    -0.316 N 
ATOM      7  O   UNL     1      19.219   5.103   3.737  1.00  0.00    -0.267 OA
ATOM      8  C   UNL     1      17.484   4.719   1.620  1.00  0.00     0.153 C 
ENDROOT
BRANCH   2   9
ATOM      9  C   UNL     1      21.248   5.365  -1.416  1.00  0.00    -0.006 A 
ATOM     10  C   UNL     1      22.848   5.741  -3.184  1.00  0.00     0.141 A 
ATOM     11  C   UNL     1      22.429   6.005  -1.864  1.00  0.00     0.028 A 
ATOM     12  N   UNL     1      22.103   4.982  -4.034  1.00  0.00    -0.238 NA
ATOM     13  C   UNL     1      20.983   4.394  -3.579  1.00  0.00     0.114 A 
ATOM     14  C   UNL     1      20.528   4.545  -2.292  1.00  0.00     0.029 A 
BRANCH  10  15
ATOM     15  N   UNL     1      24.017   6.301  -3.779  1.00  0.00    -0.289 N 
ATOM     16  C   UNL     1      25.256   7.984  -4.955  1.00  0.00     0.108 A 
ATOM     17  C   UNL     1      23.987   7.577  -4.376  1.00  0.00     0.276 C 
ATOM     18  N   UNL     1      26.396   7.199  -4.913  1.00  0.00    -0.339 N 
ATOM     19  C   UNL     1      25.580   9.153  -5.651  1.00  0.00     0.037 A 
ATOM     20  C   UNL     1      26.416   5.897  -4.288  1.00  0.00     0.144 C 
ATOM     21  C   UNL     1      27.388   7.839  -5.557  1.00  0.00     0.022 A 
ATOM     22  C   UNL     1      26.922   9.034  -6.031  1.00  0.00    -0.026 A 
ATOM     23  C   UNL     1      25.310   5.831  -3.247  1.00  0.00     0.149 C 
ATOM     24  C   UNL     1      28.785   7.526  -5.898  1.00  0.00     0.061 C 
ATOM     25  C   UNL     1      27.962   9.760  -6.786  1.00  0.00     0.044 C 
ATOM     26  C   UNL     1      29.070   8.636  -6.993  1.00  0.00    -0.026 C 
ATOM     27  O   UNL     1      22.984   8.290  -4.422  1.00  0.00    -0.267 OA
ATOM     28  C   UNL     1      30.467   9.228  -6.835  1.00  0.00     0.012 C 
ATOM     29  C   UNL     1      28.921   8.005  -8.389  1.00  0.00     0.012 C 
ENDBRANCH  10  15
BRANCH  11  30
ATOM     30  C   UNL     1      23.130   6.983  -0.961  1.00  0.00     0.196 C 
BRANCH  30  31
ATOM     31  O   UNL     1      22.791   8.314  -1.305  1.00  0.00    -0.392 OA
ATOM     32  H   UNL     1      23.624   8.730  -1.624  1.00  0.00     0.211 HD
ENDBRANCH  30  31
ENDBRANCH  11  30
ENDBRANCH   2   9
BRANCH   4  33
ATOM     33  N   UNL     1      21.969   5.744   3.478  1.00  0.00    -0.336 N 
ATOM     34  H   UNL     1      21.469   5.453   4.314  1.00  0.00     0.168 HD
BRANCH  33  35
ATOM     35  C   UNL     1      22.444   7.057   3.769  1.00  0.00     0.130 A 
ATOM     36  C   UNL     1      23.781   7.235   4.133  1.00  0.00     0.049 A 
ATOM     37  N   UNL     1      21.595   8.098   3.698  1.00  0.00    -0.237 NA
ATOM     38  C   UNL     1      24.237   8.507   4.486  1.00  0.00     0.031 A 
ATOM     39  C   UNL     1      22.061   9.323   4.064  1.00  0.00     0.139 A 
ATOM     40  C   UNL     1      23.364   9.588   4.491  1.00  0.00     0.056 A 
BRANCH  40  41
ATOM     41  N   UNL     1      23.857  10.844   4.896  1.00  0.00    -0.364 N 
ATOM     42  C   UNL     1      25.006  11.400   4.108  1.00  0.00     0.098 C 
ATOM     43  C   UNL     1      24.136  10.831   6.363  1.00  0.00     0.138 C 
ATOM     44  C   UNL     1      25.363  12.818   4.648  1.00  0.00     0.141 C 
ATOM     45  C   UNL     1      24.508  12.245   6.866  1.00  0.00     0.138 C 
ATOM     46  N   UNL     1      25.655  12.791   6.103  1.00  0.00    -0.368 N 
ATOM     47  C   UNL     1      24.641  11.532   2.620  1.00  0.00     0.033 C 
BRANCH  46  48
ATOM     48  C   UNL     1      26.948  12.605   6.586  1.00  0.00     0.037 A 
ATOM     49  C   UNL     1      27.172  12.092   7.880  1.00  0.00     0.026 A 
ATOM     50  C   UNL     1      28.098  12.959   5.865  1.00  0.00     0.026 A 
ATOM     51  C   UNL     1      28.460  11.936   8.415  1.00  0.00     0.002 A 
ATOM     52  C   UNL     1      29.392  12.801   6.387  1.00  0.00     0.002 A 
ATOM     53  C   UNL     1      29.571  12.291   7.668  1.00  0.00     0.000 A 
ENDBRANCH  46  48
ENDBRANCH  40  41
ENDBRANCH  33  35
ENDBRANCH   4  33
TORSDOF 8
ENDMDL
MODEL 7
REMARK VINA RESULT:   -10.347      5.156     13.098
REMARK INTER + INTRA:         -15.187
REMARK INTER:                 -13.663
REMARK INTRA:                  -1.524
REMARK UNBOUND:                -0.304
REMARK SMILES C[C@H]1CN(c2ccccc2)CCN1c1ccc(Nc2cc(-c3ccnc(N4CCn5c(cc6c5CC(C)(C)C6)C4=O)c3CO)cn(C)c2=O)nc1
REMARK SMILES IDX 45 1 21 2 20 3 19 4 48 5 46 6 49 7 47 8 22 9 26 10 42 11
REMARK SMILES IDX 25 12 24 13 23 14 27 15 31 16 40 17 30 18 32 19 29 20 34 21
REMARK SMILES IDX 33 22 28 23 35 24 39 25 36 26 41 27 37 28 38 29 43 30 44 31
REMARK SMILES IDX 18 33 17 35 16 36 50 37 15 38 51 39 14 40 13 41 2 42 12 43
REMARK SMILES IDX 3 44 11 45 4 46 1 47 5 48 6 49 10 50 7 51 9 52 8 53
REMARK H PARENT 44 32 18 34
ROOT
ATOM      1  C   UNL     1      27.649  12.772  -0.195  1.00  0.00     0.097 A 
ATOM      2  C   UNL     1      27.959  11.774   0.646  1.00  0.00     0.001 A 
ATOM      3  C   UNL     1      28.762  12.073   1.814  1.00  0.00     0.042 A 
ATOM      4  C   UNL     1      29.072  13.331   2.179  1.00  0.00     0.107 A 
ATOM      5  C   UNL     1      28.720  14.459   1.214  1.00  0.00     0.274 A 
ATOM      6  N   UNL     1      28.064  14.073   0.036  1.00  0.00    -0.316 N 
ATOM      7  O   UNL     1      29.018  15.628   1.454  1.00  0.00    -0.267 OA
ATOM      8  C   UNL     1      27.709  15.108  -0.925  1.00  0.00     0.153 C 
ENDROOT
BRANCH   2   9
ATOM      9  C   UNL     1      27.341  10.440   0.448  1.00  0.00    -0.006 A 
ATOM     10  C   UNL     1      25.768   8.657   0.864  1.00  0.00     0.141 A 
ATOM     11  C   UNL     1      26.271   9.925   1.219  1.00  0.00     0.028 A 
ATOM     12  N   UNL     1      26.343   7.907  -0.115  1.00  0.00    -0.238 NA
ATOM     13  C   UNL     1      27.363   8.422  -0.824  1.00  0.00     0.114 A 
ATOM     14  C   UNL     1      27.880   9.673  -0.590  1.00  0.00     0.029 A 
BRANCH  10  15
ATOM     15  N   UNL     1      24.691   8.007   1.536  1.00  0.00    -0.289 N 
ATOM     16  C   UNL     1      22.533   6.970   1.672  1.00  0.00     0.108 A 
ATOM     17  C   UNL     1      23.543   7.592   0.833  1.00  0.00     0.276 C 
ATOM     18  N   UNL     1      22.687   6.788   3.036  1.00  0.00    -0.339 N 
ATOM     19  C   UNL     1      21.270   6.479   1.326  1.00  0.00     0.037 A 
ATOM     20  C   UNL     1      23.873   7.210   3.743  1.00  0.00     0.144 C 
ATOM     21  C   UNL     1      21.573   6.217   3.527  1.00  0.00     0.022 A 
ATOM     22  C   UNL     1      20.679   6.023   2.510  1.00  0.00    -0.026 A 
ATOM     23  C   UNL     1      25.037   7.271   2.767  1.00  0.00     0.149 C 
ATOM     24  C   UNL     1      21.102   5.825   4.866  1.00  0.00     0.061 C 
ATOM     25  C   UNL     1      19.418   5.435   3.003  1.00  0.00     0.044 C 
ATOM     26  C   UNL     1      19.556   5.618   4.578  1.00  0.00    -0.026 C 
ATOM     27  O   UNL     1      23.387   7.743  -0.379  1.00  0.00    -0.267 OA
ATOM     28  C   UNL     1      19.014   4.394   5.308  1.00  0.00     0.012 C 
ATOM     29  C   UNL     1      18.797   6.879   5.028  1.00  0.00     0.012 C 
ENDBRANCH  10  15
BRANCH  11  30
ATOM     30  C   UNL     1      25.777  10.699   2.412  1.00  0.00     0.196 C 
BRANCH  30  31
ATOM     31  O   UNL     1      26.490  10.328   3.579  1.00  0.00    -0.392 OA
ATOM     32  H   UNL     1      25.896  10.538   4.335  1.00  0.00     0.211 HD
ENDBRANCH  30  31
ENDBRANCH  11  30
ENDBRANCH   2   9
BRANCH   4  33
ATOM     33  N   UNL     1      29.684  13.672   3.395  1.00  0.00    -0.336 N 
ATOM     34  H   UNL     1      30.310  12.923   3.683  1.00  0.00     0.168 HD
BRANCH  33  35
ATOM     35  C   UNL     1      28.811  13.871   4.505  1.00  0.00     0.130 A 
ATOM     36  C   UNL     1      28.720  15.140   5.084  1.00  0.00     0.049 A 
ATOM     37  N   UNL     1      28.100  12.834   4.983  1.00  0.00    -0.237 NA
ATOM     38  C   UNL     1      27.921  15.328   6.213  1.00  0.00     0.031 A 
ATOM     39  C   UNL     1      27.344  13.041   6.094  1.00  0.00     0.139 A 
ATOM     40  C   UNL     1      27.232  14.258   6.771  1.00  0.00     0.056 A 
BRANCH  40  41
ATOM     41  N   UNL     1      26.473  14.485   7.935  1.00  0.00    -0.364 N 
ATOM     42  C   UNL     1      26.804  13.638   9.128  1.00  0.00     0.098 C 
ATOM     43  C   UNL     1      25.017  14.448   7.606  1.00  0.00     0.138 C 
ATOM     44  C   UNL     1      25.920  14.079  10.335  1.00  0.00     0.141 C 
ATOM     45  C   UNL     1      24.165  14.869   8.826  1.00  0.00     0.138 C 
ATOM     46  N   UNL     1      24.474  14.023  10.002  1.00  0.00    -0.368 N 
ATOM     47  C   UNL     1      28.279  13.803   9.529  1.00  0.00     0.033 C 
BRANCH  46  48
ATOM     48  C   UNL     1      23.713  12.882  10.243  1.00  0.00     0.037 A 
ATOM     49  C   UNL     1      23.138  12.647  11.508  1.00  0.00     0.026 A 
ATOM     50  C   UNL     1      23.513  11.875   9.287  1.00  0.00     0.026 A 
ATOM     51  C   UNL     1      22.404  11.486  11.798  1.00  0.00     0.002 A 
ATOM     52  C   UNL     1      22.775  10.712   9.563  1.00  0.00     0.002 A 
ATOM     53  C   UNL     1      22.223  10.517  10.824  1.00  0.00     0.000 A 
ENDBRANCH  46  48
ENDBRANCH  40  41
ENDBRANCH  33  35
ENDBRANCH   4  33
TORSDOF 8
ENDMDL
MODEL 8
REMARK VINA RESULT:   -10.347      4.017     14.254
REMARK INTER + INTRA:         -15.187
REMARK INTER:                 -14.207
REMARK INTRA:                  -0.980
REMARK UNBOUND:                -0.304
REMARK SMILES C[C@H]1CN(c2ccccc2)CCN1c1ccc(Nc2cc(-c3ccnc(N4CCn5c(cc6c5CC(C)(C)C6)C4=O)c3CO)cn(C)c2=O)nc1
REMARK SMILES IDX 45 1 21 2 20 3 19 4 48 5 46 6 49 7 47 8 22 9 26 10 42 11
REMARK SMILES IDX 25 12 24 13 23 14 27 15 31 16 40 17 30 18 32 19 29 20 34 21
REMARK SMILES IDX 33 22 28 23 35 24 39 25 36 26 41 27 37 28 38 29 43 30 44 31
REMARK SMILES IDX 18 33 17 35 16 36 50 37 15 38 51 39 14 40 13 41 2 42 12 43
REMARK SMILES IDX 3 44 11 45 4 46 1 47 5 48 6 49 10 50 7 51 9 52 8 53
REMARK H PARENT 44 32 18 34
ROOT
ATOM      1  C   UNL     1      22.379   7.272   2.144  1.00  0.00     0.097 A 
ATOM      2  C   UNL     1      22.665   8.543   1.827  1.00  0.00     0.001 A 
ATOM      3  C   UNL     1      22.157   9.602   2.675  1.00  0.00     0.042 A 
ATOM      4  C   UNL     1      21.550   9.363   3.852  1.00  0.00     0.107 A 
ATOM      5  C   UNL     1      21.223   7.914   4.201  1.00  0.00     0.274 A 
ATOM      6  N   UNL     1      21.626   6.953   3.262  1.00  0.00    -0.316 N 
ATOM      7  O   UNL     1      20.623   7.621   5.234  1.00  0.00    -0.267 OA
ATOM      8  C   UNL     1      21.335   5.554   3.542  1.00  0.00     0.153 C 
ENDROOT
BRANCH   2   9
ATOM      9  C   UNL     1      23.621   8.818   0.726  1.00  0.00    -0.006 A 
ATOM     10  C   UNL     1      24.478   8.705  -1.528  1.00  0.00     0.141 A 
ATOM     11  C   UNL     1      23.508   8.302  -0.587  1.00  0.00     0.028 A 
ATOM     12  N   UNL     1      25.539   9.480  -1.174  1.00  0.00    -0.238 NA
ATOM     13  C   UNL     1      25.621   9.948   0.084  1.00  0.00     0.114 A 
ATOM     14  C   UNL     1      24.691   9.657   1.052  1.00  0.00     0.029 A 
BRANCH  10  15
ATOM     15  N   UNL     1      24.496   8.281  -2.889  1.00  0.00    -0.289 N 
ATOM     16  C   UNL     1      23.884   8.401  -5.205  1.00  0.00     0.108 A 
ATOM     17  C   UNL     1      23.777   8.982  -3.876  1.00  0.00     0.276 C 
ATOM     18  N   UNL     1      24.636   7.272  -5.480  1.00  0.00    -0.339 N 
ATOM     19  C   UNL     1      23.281   8.803  -6.401  1.00  0.00     0.037 A 
ATOM     20  C   UNL     1      25.378   6.569  -4.460  1.00  0.00     0.144 C 
ATOM     21  C   UNL     1      24.508   6.973  -6.785  1.00  0.00     0.022 A 
ATOM     22  C   UNL     1      23.678   7.883  -7.378  1.00  0.00    -0.026 A 
ATOM     23  C   UNL     1      25.689   7.529  -3.323  1.00  0.00     0.149 C 
ATOM     24  C   UNL     1      24.997   5.897  -7.663  1.00  0.00     0.061 C 
ATOM     25  C   UNL     1      23.469   7.575  -8.806  1.00  0.00     0.044 C 
ATOM     26  C   UNL     1      24.049   6.097  -8.918  1.00  0.00    -0.026 C 
ATOM     27  O   UNL     1      23.103   9.988  -3.652  1.00  0.00    -0.267 OA
ATOM     28  C   UNL     1      24.812   5.920 -10.226  1.00  0.00     0.012 C 
ATOM     29  C   UNL     1      22.900   5.076  -8.837  1.00  0.00     0.012 C 
ENDBRANCH  10  15
BRANCH  11  30
ATOM     30  C   UNL     1      22.428   7.302  -0.900  1.00  0.00     0.196 C 
BRANCH  30  31
ATOM     31  O   UNL     1      22.972   6.000  -1.027  1.00  0.00    -0.392 OA
ATOM     32  H   UNL     1      23.948   6.109  -0.962  1.00  0.00     0.211 HD
ENDBRANCH  30  31
ENDBRANCH  11  30
ENDBRANCH   2   9
BRANCH   4  33
ATOM     33  N   UNL     1      21.213  10.357   4.782  1.00  0.00    -0.336 N 
ATOM     34  H   UNL     1      20.917  11.197   4.291  1.00  0.00     0.168 HD
BRANCH  33  35
ATOM     35  C   UNL     1      22.258  10.787   5.651  1.00  0.00     0.130 A 
ATOM     36  C   UNL     1      22.287  10.322   6.969  1.00  0.00     0.049 A 
ATOM     37  N   UNL     1      23.192  11.640   5.192  1.00  0.00    -0.237 NA
ATOM     38  C   UNL     1      23.267  10.791   7.845  1.00  0.00     0.031 A 
ATOM     39  C   UNL     1      24.124  12.095   6.073  1.00  0.00     0.139 A 
ATOM     40  C   UNL     1      24.200  11.728   7.418  1.00  0.00     0.056 A 
BRANCH  40  41
ATOM     41  N   UNL     1      25.144  12.205   8.349  1.00  0.00    -0.364 N 
ATOM     42  C   UNL     1      24.767  13.439   9.114  1.00  0.00     0.098 C 
ATOM     43  C   UNL     1      26.479  12.335   7.695  1.00  0.00     0.138 C 
ATOM     44  C   UNL     1      25.890  13.772  10.142  1.00  0.00     0.141 C 
ATOM     45  C   UNL     1      27.569  12.686   8.734  1.00  0.00     0.138 C 
ATOM     46  N   UNL     1      27.211  13.915   9.480  1.00  0.00    -0.368 N 
ATOM     47  C   UNL     1      23.456  13.229   9.889  1.00  0.00     0.033 C 
BRANCH  46  48
ATOM     48  C   UNL     1      27.671  15.149   9.025  1.00  0.00     0.037 A 
ATOM     49  C   UNL     1      29.046  15.377   8.811  1.00  0.00     0.026 A 
ATOM     50  C   UNL     1      26.831  16.251   8.806  1.00  0.00     0.026 A 
ATOM     51  C   UNL     1      29.547  16.621   8.397  1.00  0.00     0.002 A 
ATOM     52  C   UNL     1      27.319  17.498   8.386  1.00  0.00     0.002 A 
ATOM     53  C   UNL     1      28.683  17.683   8.185  1.00  0.00     0.000 A 
ENDBRANCH  46  48
ENDBRANCH  40  41
ENDBRANCH  33  35
ENDBRANCH   4  33
TORSDOF 8
ENDMDL
MODEL 9
REMARK VINA RESULT:   -10.340      5.869      9.651
REMARK INTER + INTRA:         -15.178
REMARK INTER:                 -13.430
REMARK INTRA:                  -1.748
REMARK UNBOUND:                -0.304
REMARK SMILES C[C@H]1CN(c2ccccc2)CCN1c1ccc(Nc2cc(-c3ccnc(N4CCn5c(cc6c5CC(C)(C)C6)C4=O)c3CO)cn(C)c2=O)nc1
REMARK SMILES IDX 45 1 21 2 20 3 19 4 48 5 46 6 49 7 47 8 22 9 26 10 42 11
REMARK SMILES IDX 25 12 24 13 23 14 27 15 31 16 40 17 30 18 32 19 29 20 34 21
REMARK SMILES IDX 33 22 28 23 35 24 39 25 36 26 41 27 37 28 38 29 43 30 44 31
REMARK SMILES IDX 18 33 17 35 16 36 50 37 15 38 51 39 14 40 13 41 2 42 12 43
REMARK SMILES IDX 3 44 11 45 4 46 1 47 5 48 6 49 10 50 7 51 9 52 8 53
REMARK H PARENT 44 32 18 34
ROOT
ATOM      1  C   UNL     1      29.561  15.872   2.599  1.00  0.00     0.097 A 
ATOM      2  C   UNL     1      29.008  14.674   2.839  1.00  0.00     0.001 A 
ATOM      3  C   UNL     1      28.574  13.870   1.714  1.00  0.00     0.042 A 
ATOM      4  C   UNL     1      28.847  14.199   0.438  1.00  0.00     0.107 A 
ATOM      5  C   UNL     1      29.472  15.566   0.175  1.00  0.00     0.274 A 
ATOM      6  N   UNL     1      29.737  16.346   1.310  1.00  0.00    -0.316 N 
ATOM      7  O   UNL     1      29.703  15.959  -0.968  1.00  0.00    -0.267 OA
ATOM      8  C   UNL     1      30.328  17.663   1.117  1.00  0.00     0.153 C 
ENDROOT
BRANCH   2   9
ATOM      9  C   UNL     1      29.007  14.139   4.222  1.00  0.00    -0.006 A 
ATOM     10  C   UNL     1      28.023  13.403   6.300  1.00  0.00     0.141 A 
ATOM     11  C   UNL     1      27.851  13.975   5.023  1.00  0.00     0.028 A 
ATOM     12  N   UNL     1      29.257  13.109   6.793  1.00  0.00    -0.238 NA
ATOM     13  C   UNL     1      30.336  13.284   6.010  1.00  0.00     0.114 A 
ATOM     14  C   UNL     1      30.260  13.778   4.731  1.00  0.00     0.029 A 
BRANCH  10  15
ATOM     15  N   UNL     1      26.959  13.165   7.219  1.00  0.00    -0.289 N 
ATOM     16  C   UNL     1      25.023  12.012   8.041  1.00  0.00     0.108 A 
ATOM     17  C   UNL     1      26.061  12.097   7.027  1.00  0.00     0.276 C 
ATOM     18  N   UNL     1      24.931  12.891   9.107  1.00  0.00    -0.339 N 
ATOM     19  C   UNL     1      23.956  11.115   8.147  1.00  0.00     0.037 A 
ATOM     20  C   UNL     1      25.864  13.976   9.298  1.00  0.00     0.144 C 
ATOM     21  C   UNL     1      23.854  12.567   9.845  1.00  0.00     0.022 A 
ATOM     22  C   UNL     1      23.226  11.492   9.281  1.00  0.00    -0.026 A 
ATOM     23  C   UNL     1      27.172  13.633   8.602  1.00  0.00     0.149 C 
ATOM     24  C   UNL     1      23.199  13.127  11.039  1.00  0.00     0.061 C 
ATOM     25  C   UNL     1      22.010  11.121  10.030  1.00  0.00     0.044 C 
ATOM     26  C   UNL     1      21.799  12.385  10.973  1.00  0.00    -0.026 C 
ATOM     27  O   UNL     1      26.126  11.304   6.087  1.00  0.00    -0.267 OA
ATOM     28  C   UNL     1      21.336  11.946  12.358  1.00  0.00     0.012 C 
ATOM     29  C   UNL     1      20.764  13.337  10.349  1.00  0.00     0.012 C 
ENDBRANCH  10  15
BRANCH  11  30
ATOM     30  C   UNL     1      26.525  14.479   4.521  1.00  0.00     0.196 C 
BRANCH  30  31
ATOM     31  O   UNL     1      25.808  13.443   3.872  1.00  0.00    -0.392 OA
ATOM     32  H   UNL     1      24.880  13.762   3.802  1.00  0.00     0.211 HD
ENDBRANCH  30  31
ENDBRANCH  11  30
ENDBRANCH   2   9
BRANCH   4  33
ATOM     33  N   UNL     1      28.610  13.361  -0.661  1.00  0.00    -0.336 N 
ATOM     34  H   UNL     1      28.120  13.880  -1.386  1.00  0.00     0.168 HD
BRANCH  33  35
ATOM     35  C   UNL     1      27.798  12.214  -0.415  1.00  0.00     0.130 A 
ATOM     36  C   UNL     1      26.610  12.359   0.305  1.00  0.00     0.049 A 
ATOM     37  N   UNL     1      28.196  11.012  -0.871  1.00  0.00    -0.237 NA
ATOM     38  C   UNL     1      25.845  11.232   0.609  1.00  0.00     0.031 A 
ATOM     39  C   UNL     1      27.441   9.928  -0.545  1.00  0.00     0.139 A 
ATOM     40  C   UNL     1      26.269   9.969   0.213  1.00  0.00     0.056 A 
BRANCH  40  41
ATOM     41  N   UNL     1      25.487   8.855   0.580  1.00  0.00    -0.364 N 
ATOM     42  C   UNL     1      24.095   8.801   0.026  1.00  0.00     0.098 C 
ATOM     43  C   UNL     1      25.511   8.686   2.063  1.00  0.00     0.138 C 
ATOM     44  C   UNL     1      23.413   7.472   0.473  1.00  0.00     0.141 C 
ATOM     45  C   UNL     1      24.810   7.371   2.478  1.00  0.00     0.138 C 
ATOM     46  N   UNL     1      23.426   7.321   1.950  1.00  0.00    -0.368 N 
ATOM     47  C   UNL     1      24.110   8.838  -1.511  1.00  0.00     0.033 C 
BRANCH  46  48
ATOM     48  C   UNL     1      22.376   7.780   2.741  1.00  0.00     0.037 A 
ATOM     49  C   UNL     1      21.540   6.879   3.431  1.00  0.00     0.026 A 
ATOM     50  C   UNL     1      22.039   9.136   2.863  1.00  0.00     0.026 A 
ATOM     51  C   UNL     1      20.445   7.305   4.199  1.00  0.00     0.002 A 
ATOM     52  C   UNL     1      20.951   9.576   3.633  1.00  0.00     0.002 A 
ATOM     53  C   UNL     1      20.150   8.655   4.300  1.00  0.00     0.000 A 
ENDBRANCH  46  48
ENDBRANCH  40  41
ENDBRANCH  33  35
ENDBRANCH   4  33
TORSDOF 8
ENDMDL
