btk_fenebrutinib_analogs.sdf_i0-again2_out1
     RDKit          3D

 95102  0  0  0  0  0  0  0  0999 V2000
   23.4690    6.3710   -5.8610 C   0  0  0  0  0  0  0  0  0  0  0  0
   24.3770    5.1330   -5.9260 C   0  0  1  0  0  0  0  0  0  0  0  0
   25.8810    5.5400   -5.9380 C   0  0  0  0  0  0  0  0  0  0  0  0
   26.5370    5.4050   -4.6240 N   0  0  0  0  0  0  0  0  0  0  0  0
   26.6440    6.4550   -3.7590 C   0  0  0  0  0  0  0  0  0  0  0  0
   26.4130    7.8260   -4.0110 C   0  0  0  0  0  0  0  0  0  0  0  0
   26.7230    8.6110   -2.9690 N   0  0  0  0  0  0  0  0  0  0  0  0
   27.0840    7.7290   -2.0220 N   0  0  0  0  0  0  0  0  0  0  0  0
   27.5320    8.2080   -0.7350 C   0  0  0  0  0  0  0  0  0  0  0  0
   27.0180    6.4240   -2.4330 C   0  0  0  0  0  0  0  0  0  0  0  0
   26.4850    4.0270   -4.0830 C   0  0  0  0  0  0  0  0  0  0  0  0
   25.2520    3.2200   -4.5620 C   0  0  0  0  0  0  0  0  0  0  0  0
   24.0770    4.0450   -4.9250 N   0  0  0  0  0  0  0  0  0  0  0  0
   23.1730    4.3470   -3.9060 C   0  0  0  0  0  0  0  0  0  0  0  0
   23.5010    5.0350   -2.7410 C   0  0  0  0  0  0  0  0  0  0  0  0
   22.4990    5.4630   -1.8630 C   0  0  0  0  0  0  0  0  0  0  0  0
   21.1680    5.1810   -2.1500 C   0  0  0  0  0  0  0  0  0  0  0  0
   20.1770    5.7420   -1.3140 N   0  0  0  0  0  0  0  0  0  0  0  0
   20.1740    5.6050    0.0680 C   0  0  0  0  0  0  0  0  0  0  0  0
   21.1460    6.0860    0.8640 C   0  0  0  0  0  0  0  0  0  0  0  0
   21.1360    5.9230    2.3070 C   0  0  0  0  0  0  0  0  0  0  0  0
   22.1170    6.5960    3.1830 C   0  0  0  0  0  0  0  0  0  0  0  0
   23.4520    6.6260    2.7740 C   0  0  0  0  0  0  0  0  0  0  0  0
   24.3570    7.2930    3.5700 C   0  0  0  0  0  0  0  0  0  0  0  0
   24.0190    7.9460    4.6970 N   0  0  0  0  0  0  0  0  0  0  0  0
   22.7210    7.9300    5.0990 C   0  0  0  0  0  0  0  0  0  0  0  0
   22.4240    8.7370    6.2260 N   0  0  0  0  0  0  0  0  0  0  0  0
   21.9580   10.1160    6.0180 C   0  0  0  0  0  0  0  0  0  0  0  0
   22.6070   11.1000    6.9840 C   0  0  0  0  0  0  0  0  0  0  0  0
   22.4910   10.5790    8.3260 N   0  0  0  0  0  0  0  0  0  0  0  0
   22.5170    9.2170    8.5760 C   0  0  0  0  0  0  0  0  0  0  0  0
   22.4320    9.0420    9.9570 C   0  0  0  0  0  0  0  0  0  0  0  0
   22.3060   10.3250   10.5130 C   0  0  0  0  0  0  0  0  0  0  0  0
   22.3380   11.2340    9.4930 C   0  0  0  0  0  0  0  0  0  0  0  0
   22.2040   12.6430    9.9000 C   0  0  0  0  0  0  0  0  0  0  0  0
   22.3650   12.5140   11.4760 C   0  0  0  0  0  0  0  0  0  0  0  0
   23.7840   12.9450   11.8880 C   0  0  0  0  0  0  0  0  0  0  0  0
   21.3340   13.3850   12.2000 C   0  0  0  0  0  0  0  0  0  0  0  0
   22.1470   10.9770   11.8280 C   0  0  0  0  0  0  0  0  0  0  0  0
   22.6330    8.2250    7.5150 C   0  0  0  0  0  0  0  0  0  0  0  0
   22.8420    7.0380    7.7590 O   0  0  0  0  0  0  0  0  0  0  0  0
   21.7290    7.2350    4.3860 C   0  0  0  0  0  0  0  0  0  0  0  0
   20.3230    7.1000    4.9040 C   0  0  0  0  0  0  0  0  0  0  0  0
   19.5690    8.2590    4.5780 O   0  0  0  0  0  0  0  0  0  0  0  0
   20.1890    5.1440    2.8610 C   0  0  0  0  0  0  0  0  0  0  0  0
   19.1530    4.6230    2.1110 N   0  0  0  0  0  0  0  0  0  0  0  0
   18.0880    3.9070    2.7920 C   0  0  0  0  0  0  0  0  0  0  0  0
   18.9650    4.9620    0.7630 C   0  0  0  0  0  0  0  0  0  0  0  0
   17.8840    4.8270    0.1930 O   0  0  0  0  0  0  0  0  0  0  0  0
   20.8260    4.4230   -3.2090 N   0  0  0  0  0  0  0  0  0  0  0  0
   21.8180    4.0460   -4.0570 C   0  0  0  0  0  0  0  0  0  0  0  0
   23.2783    6.6310   -4.8093 H   0  0  0  0  0  0  0  0  0  0  0  0
   23.9636    7.2153   -6.3636 H   0  0  0  0  0  0  0  0  0  0  0  0
   22.5151    6.1529   -6.3636 H   0  0  0  0  0  0  0  0  0  0  0  0
   24.1353    4.6569   -6.8877 H   0  0  0  0  0  0  0  0  0  0  0  0
   26.4096    4.8987   -6.6587 H   0  0  0  0  0  0  0  0  0  0  0  0
   25.9264    6.6036   -6.2148 H   0  0  0  0  0  0  0  0  0  0  0  0
   26.0194    8.2098   -4.9638 H   0  0  0  0  0  0  0  0  0  0  0  0
   27.0145    7.6547    0.0626 H   0  0  0  0  0  0  0  0  0  0  0  0
   28.6173    8.0535   -0.6437 H   0  0  0  0  0  0  0  0  0  0  0  0
   27.3054    9.2805   -0.6437 H   0  0  0  0  0  0  0  0  0  0  0  0
   27.2227    5.5298   -1.8259 H   0  0  0  0  0  0  0  0  0  0  0  0
   27.3939    3.4944   -4.3995 H   0  0  0  0  0  0  0  0  0  0  0  0
   26.4103    4.1120   -2.9888 H   0  0  0  0  0  0  0  0  0  0  0  0
   25.5470    2.6357   -5.4460 H   0  0  0  0  0  0  0  0  0  0  0  0
   24.9417    2.5927   -3.7133 H   0  0  0  0  0  0  0  0  0  0  0  0
   24.5558    5.2437   -2.5089 H   0  0  0  0  0  0  0  0  0  0  0  0
   22.7627    6.0192   -0.9513 H   0  0  0  0  0  0  0  0  0  0  0  0
   19.9210    6.6640   -1.6500 H   0  0  0  0  0  0  0  0  0  0  0  0
   21.9851    6.6264    0.4016 H   0  0  0  0  0  0  0  0  0  0  0  0
   23.7711    6.1320    1.8444 H   0  0  0  0  0  0  0  0  0  0  0  0
   25.4146    7.2918    3.2676 H   0  0  0  0  0  0  0  0  0  0  0  0
   22.2002   10.4194    4.9888 H   0  0  0  0  0  0  0  0  0  0  0  0
   20.8731   10.1345    6.1986 H   0  0  0  0  0  0  0  0  0  0  0  0
   23.6691   11.2252    6.7264 H   0  0  0  0  0  0  0  0  0  0  0  0
   22.1046   12.0763    6.9171 H   0  0  0  0  0  0  0  0  0  0  0  0
   22.4585    8.0873   10.5028 H   0  0  0  0  0  0  0  0  0  0  0  0
   22.9961   13.2681    9.4619 H   0  0  0  0  0  0  0  0  0  0  0  0
   21.2695   13.1240    9.5754 H   0  0  0  0  0  0  0  0  0  0  0  0
   23.8564   12.9670   12.9854 H   0  0  0  0  0  0  0  0  0  0  0  0
   24.5159   12.2286   11.4865 H   0  0  0  0  0  0  0  0  0  0  0  0
   23.9938   13.9474   11.4865 H   0  0  0  0  0  0  0  0  0  0  0  0
   21.4617   13.2771   13.2872 H   0  0  0  0  0  0  0  0  0  0  0  0
   21.4795   14.4378   11.9164 H   0  0  0  0  0  0  0  0  0  0  0  0
   20.3203   13.0656   11.9164 H   0  0  0  0  0  0  0  0  0  0  0  0
   22.9037   10.6212   12.5427 H   0  0  0  0  0  0  0  0  0  0  0  0
   21.1792   10.7689   12.3076 H   0  0  0  0  0  0  0  0  0  0  0  0
   19.8502    6.2180    4.4473 H   0  0  0  0  0  0  0  0  0  0  0  0
   20.3518    6.9852    5.9976 H   0  0  0  0  0  0  0  0  0  0  0  0
   18.7790    8.2450    5.1480 H   0  0  0  0  0  0  0  0  0  0  0  0
   20.2412    4.9169    3.9360 H   0  0  0  0  0  0  0  0  0  0  0  0
   18.2226    3.9975    3.8800 H   0  0  0  0  0  0  0  0  0  0  0  0
   17.1164    4.3360    2.5058 H   0  0  0  0  0  0  0  0  0  0  0  0
   18.1186    2.8453    2.5058 H   0  0  0  0  0  0  0  0  0  0  0  0
   21.5292    3.4532   -4.9375 H   0  0  0  0  0  0  0  0  0  0  0  0
  1  2  1  0
  2  3  1  0
  3  4  1  0
  4  5  1  0
  5  6  1  0
  6  7  2  0
  7  8  1  0
  8  9  1  0
  8 10  1  0
  4 11  1  0
 11 12  1  0
 12 13  1  0
 13 14  1  0
 14 15  2  0
 15 16  1  0
 16 17  2  0
 17 18  1  0
 18 19  1  0
 19 20  2  0
 20 21  1  0
 21 22  1  0
 22 23  2  0
 23 24  1  0
 24 25  2  0
 25 26  1  0
 26 27  1  0
 27 28  1  0
 28 29  1  0
 29 30  1  0
 30 31  1  0
 31 32  2  0
 32 33  1  0
 33 34  2  0
 34 35  1  0
 35 36  1  0
 36 37  1  0
 36 38  1  0
 36 39  1  0
 31 40  1  0
 40 41  2  0
 26 42  2  0
 42 43  1  0
 43 44  1  0
 21 45  2  0
 45 46  1  0
 46 47  1  0
 46 48  1  0
 48 49  2  0
 17 50  1  0
 50 51  2  0
 13  2  1  0
 51 14  1  0
 10  5  2  0
 48 19  1  0
 42 22  1  0
 40 27  1  0
 34 30  1  0
 39 33  1  0
  1 52  1  0
  1 53  1  0
  1 54  1  0
  2 55  1  6
  3 56  1  0
  3 57  1  0
  6 58  1  0
  9 59  1  0
  9 60  1  0
  9 61  1  0
 10 62  1  0
 11 63  1  0
 11 64  1  0
 12 65  1  0
 12 66  1  0
 15 67  1  0
 16 68  1  0
 18 69  1  0
 20 70  1  0
 23 71  1  0
 24 72  1  0
 28 73  1  0
 28 74  1  0
 29 75  1  0
 29 76  1  0
 32 77  1  0
 35 78  1  0
 35 79  1  0
 37 80  1  0
 37 81  1  0
 37 82  1  0
 38 83  1  0
 38 84  1  0
 38 85  1  0
 39 86  1  0
 39 87  1  0
 43 88  1  0
 43 89  1  0
 44 90  1  0
 45 91  1  0
 47 92  1  0
 47 93  1  0
 47 94  1  0
 51 95  1  0
M  END
>  <meeko>  (1) 
{"is_sidechain": [false], "free_energy": -12.182, "intermolecular_energy": -17.524, "internal_energy": -0.578}

$$$$
