btk_fenebrutinib_analogs.sdf_i0_out1
     RDKit          3D

 93100  0  0  0  0  0  0  0  0999 V2000
   25.9880    5.3150   -3.7980 C   0  0  0  0  0  0  0  0  0  0  0  0
   25.3270    6.6740   -4.0570 C   0  0  1  0  0  0  0  0  0  0  0  0
   26.0540    7.3370   -5.2760 C   0  0  0  0  0  0  0  0  0  0  0  0
   25.3190    8.5900   -5.7330 N   0  0  0  0  0  0  0  0  0  0  0  0
   25.9160    9.2200   -6.9750 C   0  0  0  0  0  0  0  0  0  0  0  0
   27.3870    9.6810   -6.9410 C   0  0  0  0  0  0  0  0  0  0  0  0
   26.9540   11.0110   -6.5250 O   0  0  0  0  0  0  0  0  0  0  0  0
   25.6430   10.7260   -7.1130 C   0  0  0  0  0  0  0  0  0  0  0  0
   23.8740    8.3000   -6.0580 C   0  0  0  0  0  0  0  0  0  0  0  0
   23.1860    7.7020   -4.8300 C   0  0  0  0  0  0  0  0  0  0  0  0
   23.8940    6.4910   -4.3700 N   0  0  0  0  0  0  0  0  0  0  0  0
   23.1270    5.8350   -3.3880 C   0  0  0  0  0  0  0  0  0  0  0  0
   22.2560    4.8200   -3.7890 C   0  0  0  0  0  0  0  0  0  0  0  0
   21.2310    4.4240   -2.9410 C   0  0  0  0  0  0  0  0  0  0  0  0
   21.0810    5.0700   -1.7110 C   0  0  0  0  0  0  0  0  0  0  0  0
   19.7710    5.1520   -1.1570 N   0  0  0  0  0  0  0  0  0  0  0  0
   19.7780    5.4470    0.2200 C   0  0  0  0  0  0  0  0  0  0  0  0
   20.8150    6.0030    0.8560 C   0  0  0  0  0  0  0  0  0  0  0  0
   20.9010    6.0870    2.3020 C   0  0  0  0  0  0  0  0  0  0  0  0
   22.0190    6.7080    3.0460 C   0  0  0  0  0  0  0  0  0  0  0  0
   23.3110    6.2230    2.7920 C   0  0  0  0  0  0  0  0  0  0  0  0
   24.3420    6.7180    3.5530 C   0  0  0  0  0  0  0  0  0  0  0  0
   24.1710    7.5710    4.5760 N   0  0  0  0  0  0  0  0  0  0  0  0
   22.9150    8.0260    4.8520 C   0  0  0  0  0  0  0  0  0  0  0  0
   22.8120    8.7660    6.0650 N   0  0  0  0  0  0  0  0  0  0  0  0
   22.8200   10.2370    5.9460 C   0  0  0  0  0  0  0  0  0  0  0  0
   23.6220   10.9210    7.0500 C   0  0  0  0  0  0  0  0  0  0  0  0
   23.1140   10.4250    8.3110 N   0  0  0  0  0  0  0  0  0  0  0  0
   22.6900    9.1150    8.4350 C   0  0  0  0  0  0  0  0  0  0  0  0
   22.2580    8.9310    9.7440 C   0  0  0  0  0  0  0  0  0  0  0  0
   22.4250   10.1550   10.3920 C   0  0  0  0  0  0  0  0  0  0  0  0
   22.9740   11.0430    9.4970 C   0  0  0  0  0  0  0  0  0  0  0  0
   23.2850   12.3640   10.0580 C   0  0  0  0  0  0  0  0  0  0  0  0
   22.4770   12.3100   11.4240 C   0  0  0  0  0  0  0  0  0  0  0  0
   23.2740   12.9530   12.5630 C   0  0  0  0  0  0  0  0  0  0  0  0
   21.1310   13.0290   11.2450 C   0  0  0  0  0  0  0  0  0  0  0  0
   22.2170   10.7740   11.7210 C   0  0  0  0  0  0  0  0  0  0  0  0
   22.7600    8.1610    7.3370 C   0  0  0  0  0  0  0  0  0  0  0  0
   22.8060    6.9460    7.5450 O   0  0  0  0  0  0  0  0  0  0  0  0
   21.8270    7.7130    4.0220 C   0  0  0  0  0  0  0  0  0  0  0  0
   20.5490    8.5180    4.0540 C   0  0  0  0  0  0  0  0  0  0  0  0
   19.7110    7.9520    5.0740 O   0  0  0  0  0  0  0  0  0  0  0  0
   19.9580    5.4650    3.0250 C   0  0  0  0  0  0  0  0  0  0  0  0
   18.8500    4.8800    2.4370 N   0  0  0  0  0  0  0  0  0  0  0  0
   17.7960    4.3560    3.2940 C   0  0  0  0  0  0  0  0  0  0  0  0
   18.6000    4.9860    1.0700 C   0  0  0  0  0  0  0  0  0  0  0  0
   17.5200    4.6770    0.5570 O   0  0  0  0  0  0  0  0  0  0  0  0
   22.0290    5.9010   -1.2290 N   0  0  0  0  0  0  0  0  0  0  0  0
   23.0220    6.2560   -2.0630 C   0  0  0  0  0  0  0  0  0  0  0  0
   26.0694    5.1475   -2.7139 H   0  0  0  0  0  0  0  0  0  0  0  0
   25.3767    4.5184   -4.2472 H   0  0  0  0  0  0  0  0  0  0  0  0
   26.9921    5.3041   -4.2472 H   0  0  0  0  0  0  0  0  0  0  0  0
   25.4077    7.3120   -3.1646 H   0  0  0  0  0  0  0  0  0  0  0  0
   27.0782    7.6083   -4.9802 H   0  0  0  0  0  0  0  0  0  0  0  0
   26.0715    6.6174   -6.1078 H   0  0  0  0  0  0  0  0  0  0  0  0
   25.5675    8.4333   -7.6603 H   0  0  0  0  0  0  0  0  0  0  0  0
   28.0060    9.1564   -6.1982 H   0  0  0  0  0  0  0  0  0  0  0  0
   28.0331    9.5537   -7.8221 H   0  0  0  0  0  0  0  0  0  0  0  0
   24.7933   11.0861   -6.5143 H   0  0  0  0  0  0  0  0  0  0  0  0
   25.3611   11.1562   -8.0854 H   0  0  0  0  0  0  0  0  0  0  0  0
   23.3677    9.2339   -6.3436 H   0  0  0  0  0  0  0  0  0  0  0  0
   23.8219    7.5850   -6.8923 H   0  0  0  0  0  0  0  0  0  0  0  0
   23.1820    8.4468   -4.0205 H   0  0  0  0  0  0  0  0  0  0  0  0
   22.1564    7.4265   -5.1020 H   0  0  0  0  0  0  0  0  0  0  0  0
   22.3812    4.3378   -4.7697 H   0  0  0  0  0  0  0  0  0  0  0  0
   20.5468    3.6136   -3.2329 H   0  0  0  0  0  0  0  0  0  0  0  0
   19.2660    5.8660   -1.6740 H   0  0  0  0  0  0  0  0  0  0  0  0
   21.6397    6.4151    0.2559 H   0  0  0  0  0  0  0  0  0  0  0  0
   23.4922    5.4714    2.0095 H   0  0  0  0  0  0  0  0  0  0  0  0
   25.3659    6.3974    3.3106 H   0  0  0  0  0  0  0  0  0  0  0  0
   23.2595   10.5076    4.9746 H   0  0  0  0  0  0  0  0  0  0  0  0
   21.7786   10.5797    6.0357 H   0  0  0  0  0  0  0  0  0  0  0  0
   24.6894   10.6747    6.9496 H   0  0  0  0  0  0  0  0  0  0  0  0
   23.5208   12.0146    6.9888 H   0  0  0  0  0  0  0  0  0  0  0  0
   21.8624    8.0028   10.1822 H   0  0  0  0  0  0  0  0  0  0  0  0
   24.3644   12.4854   10.2315 H   0  0  0  0  0  0  0  0  0  0  0  0
   23.0176   13.2084    9.4057 H   0  0  0  0  0  0  0  0  0  0  0  0
   22.8646   12.6227   13.5290 H   0  0  0  0  0  0  0  0  0  0  0  0
   24.3289   12.6500   12.4890 H   0  0  0  0  0  0  0  0  0  0  0  0
   23.2010   14.0481   12.4890 H   0  0  0  0  0  0  0  0  0  0  0  0
   20.7032   13.2575   12.2323 H   0  0  0  0  0  0  0  0  0  0  0  0
   21.2862   13.9643   10.6873 H   0  0  0  0  0  0  0  0  0  0  0  0
   20.4399   12.3799   10.6873 H   0  0  0  0  0  0  0  0  0  0  0  0
   22.9340   10.3841   12.4585 H   0  0  0  0  0  0  0  0  0  0  0  0
   21.2251   10.5706   12.1508 H   0  0  0  0  0  0  0  0  0  0  0  0
   20.7722    9.5688    4.2908 H   0  0  0  0  0  0  0  0  0  0  0  0
   20.0458    8.4874    3.0763 H   0  0  0  0  0  0  0  0  0  0  0  0
   19.4230    8.6880    5.6490 H   0  0  0  0  0  0  0  0  0  0  0  0
   20.0685    5.4184    4.1184 H   0  0  0  0  0  0  0  0  0  0  0  0
   18.0772    4.4958    4.3482 H   0  0  0  0  0  0  0  0  0  0  0  0
   16.8574    4.8924    3.0906 H   0  0  0  0  0  0  0  0  0  0  0  0
   17.6571    3.2839    3.0906 H   0  0  0  0  0  0  0  0  0  0  0  0
   23.8046    6.9238   -1.6736 H   0  0  0  0  0  0  0  0  0  0  0  0
  1  2  1  0
  2  3  1  0
  3  4  1  0
  4  5  1  0
  5  6  1  0
  6  7  1  0
  7  8  1  0
  4  9  1  0
  9 10  1  0
 10 11  1  0
 11 12  1  0
 12 13  2  0
 13 14  1  0
 14 15  2  0
 15 16  1  0
 16 17  1  0
 17 18  2  0
 18 19  1  0
 19 20  1  0
 20 21  2  0
 21 22  1  0
 22 23  2  0
 23 24  1  0
 24 25  1  0
 25 26  1  0
 26 27  1  0
 27 28  1  0
 28 29  1  0
 29 30  2  0
 30 31  1  0
 31 32  2  0
 32 33  1  0
 33 34  1  0
 34 35  1  0
 34 36  1  0
 34 37  1  0
 29 38  1  0
 38 39  2  0
 24 40  2  0
 40 41  1  0
 41 42  1  0
 19 43  2  0
 43 44  1  0
 44 45  1  0
 44 46  1  0
 46 47  2  0
 15 48  1  0
 48 49  2  0
 11  2  1  0
 49 12  1  0
  8  5  1  0
 46 17  1  0
 40 20  1  0
 38 25  1  0
 32 28  1  0
 37 31  1  0
  1 50  1  0
  1 51  1  0
  1 52  1  0
  2 53  1  1
  3 54  1  0
  3 55  1  0
  5 56  1  0
  6 57  1  0
  6 58  1  0
  8 59  1  0
  8 60  1  0
  9 61  1  0
  9 62  1  0
 10 63  1  0
 10 64  1  0
 13 65  1  0
 14 66  1  0
 16 67  1  0
 18 68  1  0
 21 69  1  0
 22 70  1  0
 26 71  1  0
 26 72  1  0
 27 73  1  0
 27 74  1  0
 30 75  1  0
 33 76  1  0
 33 77  1  0
 35 78  1  0
 35 79  1  0
 35 80  1  0
 36 81  1  0
 36 82  1  0
 36 83  1  0
 37 84  1  0
 37 85  1  0
 41 86  1  0
 41 87  1  0
 42 88  1  0
 43 89  1  0
 45 90  1  0
 45 91  1  0
 45 92  1  0
 49 93  1  0
M  END
>  <meeko>  (1) 
{"is_sidechain": [false], "free_energy": -13.023, "intermolecular_energy": -18.733, "internal_energy": 0.053}

$$$$
