REMARK VINA RESULT:   -13.023      0.000      0.000
REMARK INTER + INTRA:         -18.679
REMARK INTER:                 -18.733
REMARK INTRA:                   0.053
REMARK UNBOUND:                 0.053
REMARK SMILES C[C@H]1CN(C2COC2)CCN1c1ccc(Nc2cc(-c3ccnc(N4CCn5c(cc6c5CC(C)(C)C6)C4=O)c3CO)cn(C)c2=O)nc1
REMARK SMILES IDX 17 1 18 2 46 3 19 4 44 5 47 6 43 7 45 8 16 9 15 11 12 12
REMARK SMILES IDX 49 13 13 14 48 15 14 16 11 17 3 18 4 19 2 20 9 21 10 22 1 23
REMARK SMILES IDX 5 24 8 25 6 26 7 27 20 28 21 29 40 30 22 31 24 32 23 33
REMARK SMILES IDX 41 34 42 35 25 37 26 38 38 39 27 40 29 41 28 42 30 43 32 44
REMARK SMILES IDX 31 45 33 46 37 47 34 48 39 49 35 50 36 51
REMARK H PARENT 16 10 42 36
ROOT
ATOM      1  C   UNL     1      19.778   5.447   0.220  1.00  0.00     0.107 A 
ATOM      2  C   UNL     1      20.815   6.003   0.856  1.00  0.00     0.042 A 
ATOM      3  C   UNL     1      18.600   4.986   1.070  1.00  0.00     0.274 A 
ATOM      4  C   UNL     1      20.901   6.087   2.302  1.00  0.00     0.001 A 
ATOM      5  N   UNL     1      18.850   4.880   2.437  1.00  0.00    -0.316 N 
ATOM      6  O   UNL     1      17.520   4.677   0.557  1.00  0.00    -0.267 OA
ATOM      7  C   UNL     1      19.958   5.465   3.025  1.00  0.00     0.097 A 
ATOM      8  C   UNL     1      17.796   4.356   3.294  1.00  0.00     0.153 C 
ENDROOT
BRANCH   1   9
ATOM      9  N   UNL     1      19.771   5.152  -1.157  1.00  0.00    -0.336 N 
ATOM     10  H   UNL     1      19.266   5.866  -1.674  1.00  0.00     0.168 HD
BRANCH   9  11
ATOM     11  C   UNL     1      21.081   5.070  -1.711  1.00  0.00     0.130 A 
ATOM     12  C   UNL     1      23.127   5.835  -3.388  1.00  0.00     0.056 A 
ATOM     13  C   UNL     1      23.022   6.256  -2.063  1.00  0.00     0.139 A 
ATOM     14  C   UNL     1      22.256   4.820  -3.789  1.00  0.00     0.031 A 
ATOM     15  N   UNL     1      22.029   5.901  -1.229  1.00  0.00    -0.237 NA
ATOM     16  C   UNL     1      21.231   4.424  -2.941  1.00  0.00     0.049 A 
BRANCH  12  17
ATOM     17  N   UNL     1      23.894   6.491  -4.370  1.00  0.00    -0.365 N 
ATOM     18  C   UNL     1      26.054   7.337  -5.276  1.00  0.00     0.109 C 
ATOM     19  N   UNL     1      25.319   8.590  -5.733  1.00  0.00    -0.292 NA
ATOM     20  C   UNL     1      25.327   6.674  -4.057  1.00  0.00     0.093 C 
ATOM     21  C   UNL     1      23.874   8.300  -6.058  1.00  0.00     0.106 C 
ATOM     22  C   UNL     1      23.186   7.702  -4.830  1.00  0.00     0.132 C 
ATOM     23  C   UNL     1      25.988   5.315  -3.798  1.00  0.00     0.032 C 
BRANCH  19  24
ATOM     24  C   UNL     1      25.916   9.220  -6.975  1.00  0.00     0.108 C 
ATOM     25  C   UNL     1      25.643  10.726  -7.113  1.00  0.00     0.181 C 
ATOM     26  C   UNL     1      27.387   9.681  -6.941  1.00  0.00     0.181 C 
ATOM     27  O   UNL     1      26.954  11.011  -6.525  1.00  0.00    -0.378 OA
ENDBRANCH  19  24
ENDBRANCH  12  17
ENDBRANCH   9  11
ENDBRANCH   1   9
BRANCH   4  28
ATOM     28  C   UNL     1      22.019   6.708   3.046  1.00  0.00    -0.006 A 
ATOM     29  C   UNL     1      23.311   6.223   2.792  1.00  0.00     0.029 A 
ATOM     30  C   UNL     1      21.827   7.713   4.022  1.00  0.00     0.028 A 
ATOM     31  C   UNL     1      24.342   6.718   3.553  1.00  0.00     0.114 A 
ATOM     32  C   UNL     1      22.915   8.026   4.852  1.00  0.00     0.141 A 
ATOM     33  N   UNL     1      24.171   7.571   4.576  1.00  0.00    -0.238 NA
BRANCH  30  34
ATOM     34  C   UNL     1      20.549   8.518   4.054  1.00  0.00     0.196 C 
BRANCH  34  35
ATOM     35  O   UNL     1      19.711   7.952   5.074  1.00  0.00    -0.392 OA
ATOM     36  H   UNL     1      19.423   8.688   5.649  1.00  0.00     0.211 HD
ENDBRANCH  34  35
ENDBRANCH  30  34
BRANCH  32  37
ATOM     37  N   UNL     1      22.812   8.766   6.065  1.00  0.00    -0.289 N 
ATOM     38  C   UNL     1      22.820  10.237   5.946  1.00  0.00     0.149 C 
ATOM     39  C   UNL     1      22.760   8.161   7.337  1.00  0.00     0.276 C 
ATOM     40  C   UNL     1      23.622  10.921   7.050  1.00  0.00     0.144 C 
ATOM     41  C   UNL     1      22.690   9.115   8.435  1.00  0.00     0.108 A 
ATOM     42  N   UNL     1      23.114  10.425   8.311  1.00  0.00    -0.339 N 
ATOM     43  C   UNL     1      22.258   8.931   9.744  1.00  0.00     0.037 A 
ATOM     44  C   UNL     1      22.974  11.043   9.497  1.00  0.00     0.022 A 
ATOM     45  C   UNL     1      22.425  10.155  10.392  1.00  0.00    -0.026 A 
ATOM     46  C   UNL     1      23.285  12.364  10.058  1.00  0.00     0.061 C 
ATOM     47  C   UNL     1      22.217  10.774  11.721  1.00  0.00     0.044 C 
ATOM     48  C   UNL     1      22.477  12.310  11.424  1.00  0.00    -0.026 C 
ATOM     49  O   UNL     1      22.806   6.946   7.545  1.00  0.00    -0.267 OA
ATOM     50  C   UNL     1      23.274  12.953  12.563  1.00  0.00     0.012 C 
ATOM     51  C   UNL     1      21.131  13.029  11.245  1.00  0.00     0.012 C 
ENDBRANCH  32  37
ENDBRANCH   4  28
TORSDOF 8
