REMARK VINA RESULT:   -11.344      0.000      0.000
REMARK INTER + INTRA:         -17.630
REMARK INTER:                 -17.644
REMARK INTRA:                   0.014
REMARK UNBOUND:                 0.014
REMARK SMILES CCN(CC)[C@@H]1CCN(c2ccc(Nc3cc(-c4ccnc(N5CCn6c(cc7c6CC(C)(C)C7)C5=O)c4CO)cn(C)c3=O)nc2)[C@@H](C)C1
REMARK SMILES IDX 14 1 13 3 10 4 47 5 11 6 46 7 12 8 9 9 6 10 7 11 50 12 8 13
REMARK SMILES IDX 48 14 49 15 3 16 2 17 1 18 4 19 5 20 15 21 44 22 16 23 42 24
REMARK SMILES IDX 17 25 41 26 45 27 43 28 18 29 19 30 38 31 20 32 22 33 21 34
REMARK SMILES IDX 39 35 40 36 23 38 24 39 36 40 25 41 27 42 26 43 28 44 30 45
REMARK SMILES IDX 29 46 31 47 35 48 32 49 37 50 33 51 34 52
REMARK H PARENT 14 2 40 37
ROOT
ATOM      1  N   UNL     1      20.705   4.804  -1.286  1.00  0.00    -0.336 N 
ATOM      2  H   UNL     1      20.782   3.817  -1.502  1.00  0.00     0.168 HD
ENDROOT
BRANCH   1   3
ATOM      3  C   UNL     1      21.693   5.516  -1.998  1.00  0.00     0.130 A 
ATOM      4  C   UNL     1      23.618   6.916  -3.446  1.00  0.00     0.056 A 
ATOM      5  C   UNL     1      23.174   7.290  -2.178  1.00  0.00     0.139 A 
ATOM      6  C   UNL     1      23.051   5.753  -3.966  1.00  0.00     0.031 A 
ATOM      7  N   UNL     1      22.243   6.626  -1.458  1.00  0.00    -0.237 NA
ATOM      8  C   UNL     1      22.102   5.035  -3.234  1.00  0.00     0.049 A 
BRANCH   4   9
ATOM      9  N   UNL     1      24.557   7.626  -4.223  1.00  0.00    -0.367 N 
ATOM     10  C   UNL     1      26.121   8.670  -6.006  1.00  0.00     0.060 C 
ATOM     11  C   UNL     1      24.926   9.564  -5.708  1.00  0.00     0.040 C 
ATOM     12  C   UNL     1      26.857   8.252  -4.720  1.00  0.00     0.044 C 
ATOM     13  C   UNL     1      23.921   8.818  -4.822  1.00  0.00     0.118 C 
ATOM     14  C   UNL     1      25.865   7.894  -3.584  1.00  0.00     0.080 C 
ATOM     15  C   UNL     1      26.426   6.712  -2.771  1.00  0.00     0.031 C 
BRANCH  10  16
ATOM     16  N   UNL     1      27.020   9.333  -7.080  1.00  0.00    -0.301 NA
BRANCH  16  17
ATOM     17  C   UNL     1      26.442  10.683  -7.507  1.00  0.00     0.081 C 
ATOM     18  C   UNL     1      27.447  11.430  -8.377  1.00  0.00     0.021 C 
ENDBRANCH  16  17
BRANCH  16  19
ATOM     19  C   UNL     1      27.426   8.506  -8.292  1.00  0.00     0.081 C 
ATOM     20  C   UNL     1      26.399   7.426  -8.579  1.00  0.00     0.021 C 
ENDBRANCH  16  19
ENDBRANCH  10  16
ENDBRANCH   4   9
ENDBRANCH   1   3
BRANCH   1  21
ATOM     21  C   UNL     1      20.512   5.068   0.064  1.00  0.00     0.107 A 
ATOM     22  C   UNL     1      19.136   4.760   0.654  1.00  0.00     0.274 A 
ATOM     23  C   UNL     1      21.465   5.532   0.894  1.00  0.00     0.042 A 
ATOM     24  N   UNL     1      18.962   5.077   2.005  1.00  0.00    -0.316 N 
ATOM     25  C   UNL     1      21.213   5.794   2.292  1.00  0.00     0.001 A 
ATOM     26  C   UNL     1      19.986   5.560   2.789  1.00  0.00     0.097 A 
ATOM     27  O   UNL     1      18.261   4.216  -0.017  1.00  0.00    -0.267 OA
ATOM     28  C   UNL     1      17.688   4.774   2.640  1.00  0.00     0.153 C 
BRANCH  25  29
ATOM     29  C   UNL     1      22.205   6.361   3.228  1.00  0.00    -0.006 A 
ATOM     30  C   UNL     1      23.555   6.181   2.914  1.00  0.00     0.029 A 
ATOM     31  C   UNL     1      21.842   7.127   4.357  1.00  0.00     0.028 A 
ATOM     32  C   UNL     1      24.500   6.820   3.682  1.00  0.00     0.114 A 
ATOM     33  C   UNL     1      22.885   7.736   5.067  1.00  0.00     0.141 A 
ATOM     34  N   UNL     1      24.193   7.630   4.710  1.00  0.00    -0.238 NA
BRANCH  31  35
ATOM     35  C   UNL     1      20.398   7.365   4.704  1.00  0.00     0.196 C 
BRANCH  35  36
ATOM     36  O   UNL     1      20.055   8.710   4.387  1.00  0.00    -0.392 OA
ATOM     37  H   UNL     1      20.903   9.193   4.298  1.00  0.00     0.211 HD
ENDBRANCH  35  36
ENDBRANCH  31  35
BRANCH  33  38
ATOM     38  N   UNL     1      22.611   8.599   6.158  1.00  0.00    -0.289 N 
ATOM     39  C   UNL     1      22.917  10.018   5.947  1.00  0.00     0.149 C 
ATOM     40  C   UNL     1      22.709   8.077   7.458  1.00  0.00     0.276 C 
ATOM     41  C   UNL     1      22.124  10.896   6.905  1.00  0.00     0.144 C 
ATOM     42  C   UNL     1      22.657   9.091   8.509  1.00  0.00     0.108 A 
ATOM     43  N   UNL     1      22.353  10.424   8.253  1.00  0.00    -0.339 N 
ATOM     44  C   UNL     1      22.900   8.983   9.885  1.00  0.00     0.037 A 
ATOM     45  C   UNL     1      22.344  11.109   9.409  1.00  0.00     0.022 A 
ATOM     46  C   UNL     1      22.722  10.269  10.419  1.00  0.00    -0.026 A 
ATOM     47  C   UNL     1      22.057  12.500   9.801  1.00  0.00     0.061 C 
ATOM     48  C   UNL     1      22.789  10.978  11.716  1.00  0.00     0.044 C 
ATOM     49  C   UNL     1      22.594  12.511  11.294  1.00  0.00    -0.026 C 
ATOM     50  O   UNL     1      22.804   6.876   7.699  1.00  0.00    -0.267 OA
ATOM     51  C   UNL     1      23.934  13.265  11.346  1.00  0.00     0.012 C 
ATOM     52  C   UNL     1      21.593  13.198  12.226  1.00  0.00     0.012 C 
ENDBRANCH  33  38
ENDBRANCH  25  29
ENDBRANCH   1  21
TORSDOF 10
