REMARK VINA RESULT:   -12.453      0.000      0.000
REMARK INTER + INTRA:         -17.801
REMARK INTER:                 -17.185
REMARK INTRA:                  -0.616
REMARK UNBOUND:                -0.616
REMARK SMILES C[C@@H]1CN(c2ccc(Nc3cc(-c4ccnc(N5CCn6c(cc7c6CC(C)(C)C7)C5=O)c4CO)cn(C)c3=O)nc2)C[C@H](C)C1(F)F
REMARK SMILES IDX 36 1 12 2 11 3 10 4 39 5 37 6 40 7 38 8 13 9 17 10 33 11
REMARK SMILES IDX 16 12 15 13 14 14 18 15 22 16 31 17 21 18 23 19 20 20 25 21
REMARK SMILES IDX 24 22 19 23 26 24 30 25 27 26 32 27 28 28 29 29 34 30 35 31
REMARK SMILES IDX 9 33 8 35 7 36 41 37 6 38 42 39 5 40 4 41 3 42 43 43 2 44
REMARK SMILES IDX 44 45 46 46 1 47 45 48 47 49 48 50
REMARK H PARENT 35 32 9 34
ROOT
ATOM      1  C   UNL     1      20.141   5.534   2.687  1.00  0.00     0.097 A 
ATOM      2  C   UNL     1      21.267   6.032   2.142  1.00  0.00     0.001 A 
ATOM      3  C   UNL     1      21.450   5.908   0.706  1.00  0.00     0.042 A 
ATOM      4  C   UNL     1      20.506   5.390  -0.094  1.00  0.00     0.107 A 
ATOM      5  C   UNL     1      19.200   4.949   0.530  1.00  0.00     0.274 A 
ATOM      6  N   UNL     1      19.130   4.988   1.918  1.00  0.00    -0.316 N 
ATOM      7  O   UNL     1      18.293   4.561  -0.211  1.00  0.00    -0.267 OA
ATOM      8  C   UNL     1      17.919   4.528   2.581  1.00  0.00     0.153 C 
ENDROOT
BRANCH   2   9
ATOM      9  C   UNL     1      22.279   6.645   3.039  1.00  0.00    -0.006 A 
ATOM     10  C   UNL     1      22.984   8.002   4.901  1.00  0.00     0.141 A 
ATOM     11  C   UNL     1      21.964   7.629   4.011  1.00  0.00     0.028 A 
ATOM     12  N   UNL     1      24.278   7.622   4.722  1.00  0.00    -0.238 NA
ATOM     13  C   UNL     1      24.557   6.746   3.740  1.00  0.00     0.114 A 
ATOM     14  C   UNL     1      23.600   6.210   2.907  1.00  0.00     0.029 A 
BRANCH  10  15
ATOM     15  N   UNL     1      22.741   8.779   6.067  1.00  0.00    -0.289 N 
ATOM     16  C   UNL     1      22.603   9.053   8.456  1.00  0.00     0.108 A 
ATOM     17  C   UNL     1      22.677   8.143   7.322  1.00  0.00     0.276 C 
ATOM     18  N   UNL     1      22.470  10.424   8.314  1.00  0.00    -0.339 N 
ATOM     19  C   UNL     1      22.673   8.779   9.821  1.00  0.00     0.037 A 
ATOM     20  C   UNL     1      22.366  11.043   7.011  1.00  0.00     0.144 C 
ATOM     21  C   UNL     1      22.490  10.992   9.535  1.00  0.00     0.022 A 
ATOM     22  C   UNL     1      22.610  10.016  10.482  1.00  0.00    -0.026 A 
ATOM     23  C   UNL     1      23.135  10.194   6.002  1.00  0.00     0.149 C 
ATOM     24  C   UNL     1      22.435  12.372  10.048  1.00  0.00     0.061 C 
ATOM     25  C   UNL     1      22.656  10.568  11.850  1.00  0.00     0.044 C 
ATOM     26  C   UNL     1      22.367  12.118  11.618  1.00  0.00    -0.026 C 
ATOM     27  O   UNL     1      22.715   6.923   7.485  1.00  0.00    -0.267 OA
ATOM     28  C   UNL     1      23.418  12.967  12.344  1.00  0.00     0.012 C 
ATOM     29  C   UNL     1      20.970  12.476  12.150  1.00  0.00     0.012 C 
ENDBRANCH  10  15
BRANCH  11  30
ATOM     30  C   UNL     1      20.593   8.271   4.028  1.00  0.00     0.196 C 
BRANCH  30  31
ATOM     31  O   UNL     1      19.793   7.803   5.110  1.00  0.00    -0.392 OA
ATOM     32  H   UNL     1      20.358   7.837   5.901  1.00  0.00     0.211 HD
ENDBRANCH  30  31
ENDBRANCH  11  30
ENDBRANCH   2   9
BRANCH   4  33
ATOM     33  N   UNL     1      20.615   5.247  -1.479  1.00  0.00    -0.336 N 
ATOM     34  H   UNL     1      20.366   4.275  -1.703  1.00  0.00     0.168 HD
BRANCH  33  35
ATOM     35  C   UNL     1      21.899   5.443  -2.056  1.00  0.00     0.130 A 
ATOM     36  C   UNL     1      22.465   4.431  -2.826  1.00  0.00     0.049 A 
ATOM     37  N   UNL     1      22.573   6.575  -1.787  1.00  0.00    -0.237 NA
ATOM     38  C   UNL     1      23.737   4.606  -3.375  1.00  0.00     0.031 A 
ATOM     39  C   UNL     1      23.810   6.712  -2.341  1.00  0.00     0.139 A 
ATOM     40  C   UNL     1      24.455   5.790  -3.177  1.00  0.00     0.055 A 
BRANCH  40  41
ATOM     41  N   UNL     1      25.723   6.016  -3.721  1.00  0.00    -0.369 N 
ATOM     42  C   UNL     1      26.448   4.876  -4.321  1.00  0.00     0.126 C 
ATOM     43  C   UNL     1      26.625   7.020  -3.126  1.00  0.00     0.126 C 
ATOM     44  C   UNL     1      27.260   4.159  -3.241  1.00  0.00     0.076 C 
ATOM     45  C   UNL     1      27.430   6.381  -1.995  1.00  0.00     0.076 C 
ATOM     46  C   UNL     1      28.175   5.171  -2.552  1.00  0.00     0.256 C 
ATOM     47  C   UNL     1      28.065   3.004  -3.835  1.00  0.00     0.016 C 
ATOM     48  C   UNL     1      28.393   7.392  -1.373  1.00  0.00     0.016 C 
ATOM     49  F   UNL     1      29.129   5.592  -3.429  1.00  0.00    -0.206 F 
ATOM     50  F   UNL     1      28.837   4.554  -1.533  1.00  0.00    -0.206 F 
ENDBRANCH  40  41
ENDBRANCH  33  35
ENDBRANCH   4  33
TORSDOF 7
