REMARK VINA RESULT:   -12.622      0.000      0.000
REMARK INTER + INTRA:         -18.460
REMARK INTER:                 -18.157
REMARK INTRA:                  -0.304
REMARK UNBOUND:                -0.304
REMARK SMILES C[C@H]1CN(c2ccccc2)CCN1c1ccc(Nc2cc(-c3ccnc(N4CCn5c(cc6c5CC(C)(C)C6)C4=O)c3CO)cn(C)c2=O)nc1
REMARK SMILES IDX 45 1 21 2 20 3 19 4 48 5 46 6 49 7 47 8 22 9 26 10 42 11
REMARK SMILES IDX 25 12 24 13 23 14 27 15 31 16 40 17 30 18 32 19 29 20 34 21
REMARK SMILES IDX 33 22 28 23 35 24 39 25 36 26 41 27 37 28 38 29 43 30 44 31
REMARK SMILES IDX 18 33 17 35 16 36 50 37 15 38 51 39 14 40 13 41 2 42 12 43
REMARK SMILES IDX 3 44 11 45 4 46 1 47 5 48 6 49 10 50 7 51 9 52 8 53
REMARK H PARENT 44 32 18 34
ROOT
ATOM      1  C   UNL     1      19.839   5.273   3.050  1.00  0.00     0.097 A 
ATOM      2  C   UNL     1      20.926   5.732   2.413  1.00  0.00     0.001 A 
ATOM      3  C   UNL     1      20.935   5.734   0.964  1.00  0.00     0.042 A 
ATOM      4  C   UNL     1      19.843   5.449   0.231  1.00  0.00     0.107 A 
ATOM      5  C   UNL     1      18.613   4.923   0.963  1.00  0.00     0.274 A 
ATOM      6  N   UNL     1      18.729   4.818   2.357  1.00  0.00    -0.316 N 
ATOM      7  O   UNL     1      17.595   4.592   0.356  1.00  0.00    -0.267 OA
ATOM      8  C   UNL     1      17.586   4.316   3.106  1.00  0.00     0.153 C 
ENDROOT
BRANCH   2   9
ATOM      9  C   UNL     1      22.010   6.371   3.199  1.00  0.00    -0.006 A 
ATOM     10  C   UNL     1      22.953   7.671   5.000  1.00  0.00     0.141 A 
ATOM     11  C   UNL     1      21.807   7.183   4.341  1.00  0.00     0.028 A 
ATOM     12  N   UNL     1      24.206   7.459   4.512  1.00  0.00    -0.238 NA
ATOM     13  C   UNL     1      24.364   6.690   3.421  1.00  0.00     0.114 A 
ATOM     14  C   UNL     1      23.310   6.122   2.747  1.00  0.00     0.029 A 
BRANCH  10  15
ATOM     15  N   UNL     1      22.916   8.492   6.166  1.00  0.00    -0.289 N 
ATOM     16  C   UNL     1      22.836   8.899   8.528  1.00  0.00     0.108 A 
ATOM     17  C   UNL     1      22.899   7.922   7.454  1.00  0.00     0.276 C 
ATOM     18  N   UNL     1      22.809  10.266   8.309  1.00  0.00    -0.339 N 
ATOM     19  C   UNL     1      22.766   8.697   9.910  1.00  0.00     0.037 A 
ATOM     20  C   UNL     1      22.838  10.838   6.983  1.00  0.00     0.144 C 
ATOM     21  C   UNL     1      22.721  10.894   9.495  1.00  0.00     0.022 A 
ATOM     22  C   UNL     1      22.681   9.964  10.497  1.00  0.00    -0.026 A 
ATOM     23  C   UNL     1      23.486   9.846   6.030  1.00  0.00     0.149 C 
ATOM     24  C   UNL     1      22.604  12.296   9.929  1.00  0.00     0.061 C 
ATOM     25  C   UNL     1      22.541  10.601  11.821  1.00  0.00     0.044 C 
ATOM     26  C   UNL     1      22.149  12.095  11.434  1.00  0.00    -0.026 C 
ATOM     27  O   UNL     1      22.923   6.710   7.669  1.00  0.00    -0.267 OA
ATOM     28  C   UNL     1      22.842  13.086  12.363  1.00  0.00     0.012 C 
ATOM     29  C   UNL     1      20.623  12.274  11.518  1.00  0.00     0.012 C 
ENDBRANCH  10  15
BRANCH  11  30
ATOM     30  C   UNL     1      20.406   7.551   4.749  1.00  0.00     0.196 C 
BRANCH  30  31
ATOM     31  O   UNL     1      20.098   8.873   4.345  1.00  0.00    -0.392 OA
ATOM     32  H   UNL     1      20.259   9.439   5.134  1.00  0.00     0.211 HD
ENDBRANCH  30  31
ENDBRANCH  11  30
ENDBRANCH   2   9
BRANCH   4  33
ATOM     33  N   UNL     1      19.760   5.620  -1.159  1.00  0.00    -0.336 N 
ATOM     34  H   UNL     1      19.043   5.004  -1.536  1.00  0.00     0.168 HD
BRANCH  33  35
ATOM     35  C   UNL     1      20.938   5.316  -1.903  1.00  0.00     0.130 A 
ATOM     36  C   UNL     1      22.148   5.914  -1.543  1.00  0.00     0.049 A 
ATOM     37  N   UNL     1      20.861   4.468  -2.944  1.00  0.00    -0.237 NA
ATOM     38  C   UNL     1      23.290   5.675  -2.308  1.00  0.00     0.031 A 
ATOM     39  C   UNL     1      21.986   4.266  -3.683  1.00  0.00     0.139 A 
ATOM     40  C   UNL     1      23.225   4.860  -3.432  1.00  0.00     0.056 A 
BRANCH  40  41
ATOM     41  N   UNL     1      24.393   4.682  -4.198  1.00  0.00    -0.364 N 
ATOM     42  C   UNL     1      24.207   4.519  -5.677  1.00  0.00     0.098 C 
ATOM     43  C   UNL     1      25.222   3.587  -3.612  1.00  0.00     0.138 C 
ATOM     44  C   UNL     1      25.603   4.411  -6.364  1.00  0.00     0.141 C 
ATOM     45  C   UNL     1      26.590   3.489  -4.326  1.00  0.00     0.138 C 
ATOM     46  N   UNL     1      26.412   3.308  -5.785  1.00  0.00    -0.368 N 
ATOM     47  C   UNL     1      23.472   5.729  -6.277  1.00  0.00     0.033 C 
BRANCH  46  48
ATOM     48  C   UNL     1      26.379   2.021  -6.317  1.00  0.00     0.037 A 
ATOM     49  C   UNL     1      27.140   0.982  -5.745  1.00  0.00     0.026 A 
ATOM     50  C   UNL     1      25.653   1.681  -7.467  1.00  0.00     0.026 A 
ATOM     51  C   UNL     1      27.167  -0.315  -6.282  1.00  0.00     0.002 A 
ATOM     52  C   UNL     1      25.666   0.386  -8.010  1.00  0.00     0.002 A 
ATOM     53  C   UNL     1      26.429  -0.613  -7.416  1.00  0.00     0.000 A 
ENDBRANCH  46  48
ENDBRANCH  40  41
ENDBRANCH  33  35
ENDBRANCH   4  33
TORSDOF 8
