btk_fenebrutinib_analogs.sdf_i0-again4_out1
     RDKit          3D

 89 95  0  0  0  0  0  0  0  0999 V2000
   28.0650    3.0040   -3.8350 C   0  0  0  0  0  0  0  0  0  0  0  0
   27.2600    4.1590   -3.2410 C   0  0  2  0  0  0  0  0  0  0  0  0
   26.4480    4.8760   -4.3210 C   0  0  0  0  0  0  0  0  0  0  0  0
   25.7230    6.0160   -3.7210 N   0  0  0  0  0  0  0  0  0  0  0  0
   24.4550    5.7900   -3.1770 C   0  0  0  0  0  0  0  0  0  0  0  0
   23.7370    4.6060   -3.3750 C   0  0  0  0  0  0  0  0  0  0  0  0
   22.4650    4.4310   -2.8260 C   0  0  0  0  0  0  0  0  0  0  0  0
   21.8990    5.4430   -2.0560 C   0  0  0  0  0  0  0  0  0  0  0  0
   20.6150    5.2470   -1.4790 N   0  0  0  0  0  0  0  0  0  0  0  0
   20.5060    5.3900   -0.0940 C   0  0  0  0  0  0  0  0  0  0  0  0
   21.4500    5.9080    0.7060 C   0  0  0  0  0  0  0  0  0  0  0  0
   21.2670    6.0320    2.1420 C   0  0  0  0  0  0  0  0  0  0  0  0
   22.2790    6.6450    3.0390 C   0  0  0  0  0  0  0  0  0  0  0  0
   23.6000    6.2100    2.9070 C   0  0  0  0  0  0  0  0  0  0  0  0
   24.5570    6.7460    3.7400 C   0  0  0  0  0  0  0  0  0  0  0  0
   24.2780    7.6220    4.7220 N   0  0  0  0  0  0  0  0  0  0  0  0
   22.9840    8.0020    4.9010 C   0  0  0  0  0  0  0  0  0  0  0  0
   22.7410    8.7790    6.0670 N   0  0  0  0  0  0  0  0  0  0  0  0
   23.1350   10.1940    6.0020 C   0  0  0  0  0  0  0  0  0  0  0  0
   22.3660   11.0430    7.0110 C   0  0  0  0  0  0  0  0  0  0  0  0
   22.4700   10.4240    8.3140 N   0  0  0  0  0  0  0  0  0  0  0  0
   22.6030    9.0530    8.4560 C   0  0  0  0  0  0  0  0  0  0  0  0
   22.6730    8.7790    9.8210 C   0  0  0  0  0  0  0  0  0  0  0  0
   22.6100   10.0160   10.4820 C   0  0  0  0  0  0  0  0  0  0  0  0
   22.4900   10.9920    9.5350 C   0  0  0  0  0  0  0  0  0  0  0  0
   22.4350   12.3720   10.0480 C   0  0  0  0  0  0  0  0  0  0  0  0
   22.3670   12.1180   11.6180 C   0  0  0  0  0  0  0  0  0  0  0  0
   23.4180   12.9670   12.3440 C   0  0  0  0  0  0  0  0  0  0  0  0
   20.9700   12.4760   12.1500 C   0  0  0  0  0  0  0  0  0  0  0  0
   22.6560   10.5680   11.8500 C   0  0  0  0  0  0  0  0  0  0  0  0
   22.6770    8.1430    7.3220 C   0  0  0  0  0  0  0  0  0  0  0  0
   22.7150    6.9230    7.4850 O   0  0  0  0  0  0  0  0  0  0  0  0
   21.9640    7.6290    4.0110 C   0  0  0  0  0  0  0  0  0  0  0  0
   20.5930    8.2710    4.0280 C   0  0  0  0  0  0  0  0  0  0  0  0
   19.7930    7.8030    5.1100 O   0  0  0  0  0  0  0  0  0  0  0  0
   20.1410    5.5340    2.6870 C   0  0  0  0  0  0  0  0  0  0  0  0
   19.1300    4.9880    1.9180 N   0  0  0  0  0  0  0  0  0  0  0  0
   17.9190    4.5280    2.5810 C   0  0  0  0  0  0  0  0  0  0  0  0
   19.2000    4.9490    0.5300 C   0  0  0  0  0  0  0  0  0  0  0  0
   18.2930    4.5610   -0.2110 O   0  0  0  0  0  0  0  0  0  0  0  0
   22.5730    6.5750   -1.7870 N   0  0  0  0  0  0  0  0  0  0  0  0
   23.8100    6.7120   -2.3410 C   0  0  0  0  0  0  0  0  0  0  0  0
   26.6250    7.0200   -3.1260 C   0  0  0  0  0  0  0  0  0  0  0  0
   27.4300    6.3810   -1.9950 C   0  0  2  0  0  0  0  0  0  0  0  0
   28.3930    7.3920   -1.3730 C   0  0  0  0  0  0  0  0  0  0  0  0
   28.1750    5.1710   -2.5520 C   0  0  0  0  0  0  0  0  0  0  0  0
   29.1290    5.5920   -3.4290 F   0  0  0  0  0  0  0  0  0  0  0  0
   28.8370    4.5540   -1.5330 F   0  0  0  0  0  0  0  0  0  0  0  0
   28.4887    2.3961   -3.0220 H   0  0  0  0  0  0  0  0  0  0  0  0
   27.4061    2.3787   -4.4553 H   0  0  0  0  0  0  0  0  0  0  0  0
   28.8797    3.4058   -4.4553 H   0  0  0  0  0  0  0  0  0  0  0  0
   26.5739    3.7263   -2.4980 H   0  0  0  0  0  0  0  0  0  0  0  0
   27.1262    5.2449   -5.1046 H   0  0  0  0  0  0  0  0  0  0  0  0
   25.7247    4.1737   -4.7610 H   0  0  0  0  0  0  0  0  0  0  0  0
   24.1824    3.7981   -3.9740 H   0  0  0  0  0  0  0  0  0  0  0  0
   21.9121    3.4964   -3.0015 H   0  0  0  0  0  0  0  0  0  0  0  0
   20.3660    4.2750   -1.7030 H   0  0  0  0  0  0  0  0  0  0  0  0
   22.3951    6.2507    0.2595 H   0  0  0  0  0  0  0  0  0  0  0  0
   23.8701    5.4553    2.1537 H   0  0  0  0  0  0  0  0  0  0  0  0
   25.6041    6.4419    3.5947 H   0  0  0  0  0  0  0  0  0  0  0  0
   24.2110   10.2743    6.2158 H   0  0  0  0  0  0  0  0  0  0  0  0
   22.9035   10.5676    4.9936 H   0  0  0  0  0  0  0  0  0  0  0  0
   22.7957   12.0550    7.0468 H   0  0  0  0  0  0  0  0  0  0  0  0
   21.3094   11.1132    6.7131 H   0  0  0  0  0  0  0  0  0  0  0  0
   22.7605    7.7873   10.2888 H   0  0  0  0  0  0  0  0  0  0  0  0
   23.3346   12.9410    9.7706 H   0  0  0  0  0  0  0  0  0  0  0  0
   21.5995   12.9674    9.6512 H   0  0  0  0  0  0  0  0  0  0  0  0
   23.2874   12.8615   13.4311 H   0  0  0  0  0  0  0  0  0  0  0  0
   24.4246   12.6255   12.0608 H   0  0  0  0  0  0  0  0  0  0  0  0
   23.2958   14.0229   12.0608 H   0  0  0  0  0  0  0  0  0  0  0  0
   20.9845   12.4723   13.2499 H   0  0  0  0  0  0  0  0  0  0  0  0
   20.6859   13.4760   11.7904 H   0  0  0  0  0  0  0  0  0  0  0  0
   20.2400   11.7359   11.7904 H   0  0  0  0  0  0  0  0  0  0  0  0
   23.6451   10.4137   12.3060 H   0  0  0  0  0  0  0  0  0  0  0  0
   21.9405   10.0904   12.5356 H   0  0  0  0  0  0  0  0  0  0  0  0
   20.7131    9.3604    4.1216 H   0  0  0  0  0  0  0  0  0  0  0  0
   20.0832    8.0035    3.0907 H   0  0  0  0  0  0  0  0  0  0  0  0
   20.3580    7.8370    5.9010 H   0  0  0  0  0  0  0  0  0  0  0  0
   20.0215    5.5625    3.7801 H   0  0  0  0  0  0  0  0  0  0  0  0
   18.0556    4.5799    3.6713 H   0  0  0  0  0  0  0  0  0  0  0  0
   17.0741    5.1678    2.2865 H   0  0  0  0  0  0  0  0  0  0  0  0
   17.7119    3.4886    2.2865 H   0  0  0  0  0  0  0  0  0  0  0  0
   24.3569    7.6379   -2.1094 H   0  0  0  0  0  0  0  0  0  0  0  0
   27.3129    7.3966   -3.8973 H   0  0  0  0  0  0  0  0  0  0  0  0
   26.0295    7.8532   -2.7245 H   0  0  0  0  0  0  0  0  0  0  0  0
   26.7515    6.0520   -1.1941 H   0  0  0  0  0  0  0  0  0  0  0  0
   28.3329    7.3289   -0.2765 H   0  0  0  0  0  0  0  0  0  0  0  0
   29.4199    7.1679   -1.6975 H   0  0  0  0  0  0  0  0  0  0  0  0
   28.1192    8.4068   -1.6975 H   0  0  0  0  0  0  0  0  0  0  0  0
  1  2  1  0
  1 49  1  0
  1 50  1  0
  1 51  1  0
  2  3  1  0
  2 52  1  1
  3  4  1  0
  3 53  1  0
  3 54  1  0
  4  5  1  0
  4 43  1  0
  5  6  2  0
  6  7  1  0
  6 55  1  0
  7  8  2  0
  7 56  1  0
  8  9  1  0
  8 41  1  0
  9 10  1  0
  9 57  1  0
 10 11  2  0
 11 12  1  0
 11 58  1  0
 12 13  1  0
 12 36  2  0
 13 14  2  0
 14 15  1  0
 14 59  1  0
 15 16  2  0
 15 60  1  0
 16 17  1  0
 17 18  1  0
 17 33  2  0
 18 19  1  0
 19 20  1  0
 19 61  1  0
 19 62  1  0
 20 21  1  0
 20 63  1  0
 20 64  1  0
 21 22  1  0
 22 23  2  0
 22 31  1  0
 23 24  1  0
 23 65  1  0
 24 25  2  0
 21 25  1  0
 25 26  1  0
 26 27  1  0
 26 66  1  0
 26 67  1  0
 27 28  1  0
 27 29  1  0
 27 30  1  0
 28 68  1  0
 28 69  1  0
 28 70  1  0
 29 71  1  0
 29 72  1  0
 29 73  1  0
 24 30  1  0
 30 74  1  0
 30 75  1  0
 18 31  1  0
 31 32  2  0
 13 33  1  0
 33 34  1  0
 34 35  1  0
 34 76  1  0
 34 77  1  0
 35 78  1  0
 36 37  1  0
 36 79  1  0
 37 38  1  0
 37 39  1  0
 38 80  1  0
 38 81  1  0
 38 82  1  0
 10 39  1  0
 39 40  2  0
 41 42  2  0
  5 42  1  0
 42 83  1  0
 43 44  1  0
 43 84  1  0
 43 85  1  0
 44 45  1  0
 44 46  1  0
 44 86  1  1
 45 87  1  0
 45 88  1  0
 45 89  1  0
  2 46  1  0
 46 47  1  0
 46 48  1  0
M  END
>  <meeko>  (1) 


>  <energy": -12.453, "intermolecular_energy": -17.185, "internal_energy": -0.616}>  (1) 


>  <atom.dprop.PartialCharge>  (1) 
-0.12417618930339813 -0.11482605338096619 0.13021261990070343 -0.62427139282226562 0.10571751743555069 -0.26521959900856018 -0.40565448999404907 0.47912698984146118 -0.49661287665367126
0.10003960132598877 -0.37395992875099182 -0.12771573662757874 -0.060271520167589188 -0.30514323711395264 0.39573365449905396 -0.68976956605911255 0.23963643610477448 -0.40534847974777222
0.074492551386356354 0.07098090648651123 -0.18223005533218384 -0.2077028900384903 -0.25095665454864502 0.010786865837872028 0.039130691438913345 -0.2464301735162735 -0.012966413982212543
-0.14185962080955505 -0.14185962080955505 -0.19725719094276428 0.70617157220840454 -0.63826489448547363 -0.18346366286277771 0.16727429628372192 -0.66309785842895508 -0.21015827357769012
-0.18011380732059479 -0.026890097185969353 0.63328450918197632 -0.66675800085067749 -0.68614113330841064 0.15784642100334167 0.13021256029605865 -0.11482613533735275 -0.12417623400688171
0.41047236323356628 -0.17139224708080292 -0.17139224708080292 0.08599543571472168 0.08599543571472168 0.08599543571472168 0.12148985266685486 0.099702410399913788 0.099702410399913788
0.21014195680618286 0.20622380077838898 0.38433113694190979 0.18982358276844025 0.19867900013923645 0.19770844280719757 0.091718666255474091 0.091718666255474091 0.058194957673549652
0.058194957673549652 0.19220134615898132 0.13576716184616089 0.13576716184616089 0.089389003813266754 0.089389003813266754 0.089389003813266754 0.089389003813266754 0.089388996362686157
0.089389011263847351 0.12602101266384125 0.12602101266384125 0.072834424674510956 0.072834424674510956 0.39428064227104187 0.20182612538337708 0.10798833519220352 0.10798832774162292
0.10798833519220352 0.19743645191192627 0.099702388048171997 0.099702388048171997 0.12148988246917725 0.085995472967624664 0.085995472967624664 0.085995472967624664

$$$$
btk_fenebrutinib_analogs.sdf_i0_out1
     RDKit          3D

 93100  0  0  0  0  0  0  0  0999 V2000
   25.9880    5.3150   -3.7980 C   0  0  0  0  0  0  0  0  0  0  0  0
   25.3270    6.6740   -4.0570 C   0  0  1  0  0  0  0  0  0  0  0  0
   26.0540    7.3370   -5.2760 C   0  0  0  0  0  0  0  0  0  0  0  0
   25.3190    8.5900   -5.7330 N   0  0  0  0  0  0  0  0  0  0  0  0
   25.9160    9.2200   -6.9750 C   0  0  0  0  0  0  0  0  0  0  0  0
   27.3870    9.6810   -6.9410 C   0  0  0  0  0  0  0  0  0  0  0  0
   26.9540   11.0110   -6.5250 O   0  0  0  0  0  0  0  0  0  0  0  0
   25.6430   10.7260   -7.1130 C   0  0  0  0  0  0  0  0  0  0  0  0
   23.8740    8.3000   -6.0580 C   0  0  0  0  0  0  0  0  0  0  0  0
   23.1860    7.7020   -4.8300 C   0  0  0  0  0  0  0  0  0  0  0  0
   23.8940    6.4910   -4.3700 N   0  0  0  0  0  0  0  0  0  0  0  0
   23.1270    5.8350   -3.3880 C   0  0  0  0  0  0  0  0  0  0  0  0
   22.2560    4.8200   -3.7890 C   0  0  0  0  0  0  0  0  0  0  0  0
   21.2310    4.4240   -2.9410 C   0  0  0  0  0  0  0  0  0  0  0  0
   21.0810    5.0700   -1.7110 C   0  0  0  0  0  0  0  0  0  0  0  0
   19.7710    5.1520   -1.1570 N   0  0  0  0  0  0  0  0  0  0  0  0
   19.7780    5.4470    0.2200 C   0  0  0  0  0  0  0  0  0  0  0  0
   20.8150    6.0030    0.8560 C   0  0  0  0  0  0  0  0  0  0  0  0
   20.9010    6.0870    2.3020 C   0  0  0  0  0  0  0  0  0  0  0  0
   22.0190    6.7080    3.0460 C   0  0  0  0  0  0  0  0  0  0  0  0
   23.3110    6.2230    2.7920 C   0  0  0  0  0  0  0  0  0  0  0  0
   24.3420    6.7180    3.5530 C   0  0  0  0  0  0  0  0  0  0  0  0
   24.1710    7.5710    4.5760 N   0  0  0  0  0  0  0  0  0  0  0  0
   22.9150    8.0260    4.8520 C   0  0  0  0  0  0  0  0  0  0  0  0
   22.8120    8.7660    6.0650 N   0  0  0  0  0  0  0  0  0  0  0  0
   22.8200   10.2370    5.9460 C   0  0  0  0  0  0  0  0  0  0  0  0
   23.6220   10.9210    7.0500 C   0  0  0  0  0  0  0  0  0  0  0  0
   23.1140   10.4250    8.3110 N   0  0  0  0  0  0  0  0  0  0  0  0
   22.6900    9.1150    8.4350 C   0  0  0  0  0  0  0  0  0  0  0  0
   22.2580    8.9310    9.7440 C   0  0  0  0  0  0  0  0  0  0  0  0
   22.4250   10.1550   10.3920 C   0  0  0  0  0  0  0  0  0  0  0  0
   22.9740   11.0430    9.4970 C   0  0  0  0  0  0  0  0  0  0  0  0
   23.2850   12.3640   10.0580 C   0  0  0  0  0  0  0  0  0  0  0  0
   22.4770   12.3100   11.4240 C   0  0  0  0  0  0  0  0  0  0  0  0
   23.2740   12.9530   12.5630 C   0  0  0  0  0  0  0  0  0  0  0  0
   21.1310   13.0290   11.2450 C   0  0  0  0  0  0  0  0  0  0  0  0
   22.2170   10.7740   11.7210 C   0  0  0  0  0  0  0  0  0  0  0  0
   22.7600    8.1610    7.3370 C   0  0  0  0  0  0  0  0  0  0  0  0
   22.8060    6.9460    7.5450 O   0  0  0  0  0  0  0  0  0  0  0  0
   21.8270    7.7130    4.0220 C   0  0  0  0  0  0  0  0  0  0  0  0
   20.5490    8.5180    4.0540 C   0  0  0  0  0  0  0  0  0  0  0  0
   19.7110    7.9520    5.0740 O   0  0  0  0  0  0  0  0  0  0  0  0
   19.9580    5.4650    3.0250 C   0  0  0  0  0  0  0  0  0  0  0  0
   18.8500    4.8800    2.4370 N   0  0  0  0  0  0  0  0  0  0  0  0
   17.7960    4.3560    3.2940 C   0  0  0  0  0  0  0  0  0  0  0  0
   18.6000    4.9860    1.0700 C   0  0  0  0  0  0  0  0  0  0  0  0
   17.5200    4.6770    0.5570 O   0  0  0  0  0  0  0  0  0  0  0  0
   22.0290    5.9010   -1.2290 N   0  0  0  0  0  0  0  0  0  0  0  0
   23.0220    6.2560   -2.0630 C   0  0  0  0  0  0  0  0  0  0  0  0
   26.0694    5.1475   -2.7139 H   0  0  0  0  0  0  0  0  0  0  0  0
   25.3767    4.5184   -4.2472 H   0  0  0  0  0  0  0  0  0  0  0  0
   26.9921    5.3041   -4.2472 H   0  0  0  0  0  0  0  0  0  0  0  0
   25.4077    7.3120   -3.1646 H   0  0  0  0  0  0  0  0  0  0  0  0
   27.0782    7.6083   -4.9802 H   0  0  0  0  0  0  0  0  0  0  0  0
   26.0715    6.6174   -6.1078 H   0  0  0  0  0  0  0  0  0  0  0  0
   25.5675    8.4333   -7.6603 H   0  0  0  0  0  0  0  0  0  0  0  0
   28.0060    9.1564   -6.1982 H   0  0  0  0  0  0  0  0  0  0  0  0
   28.0331    9.5537   -7.8221 H   0  0  0  0  0  0  0  0  0  0  0  0
   24.7933   11.0861   -6.5143 H   0  0  0  0  0  0  0  0  0  0  0  0
   25.3611   11.1562   -8.0854 H   0  0  0  0  0  0  0  0  0  0  0  0
   23.3677    9.2339   -6.3436 H   0  0  0  0  0  0  0  0  0  0  0  0
   23.8219    7.5850   -6.8923 H   0  0  0  0  0  0  0  0  0  0  0  0
   23.1820    8.4468   -4.0205 H   0  0  0  0  0  0  0  0  0  0  0  0
   22.1564    7.4265   -5.1020 H   0  0  0  0  0  0  0  0  0  0  0  0
   22.3812    4.3378   -4.7697 H   0  0  0  0  0  0  0  0  0  0  0  0
   20.5468    3.6136   -3.2329 H   0  0  0  0  0  0  0  0  0  0  0  0
   19.2660    5.8660   -1.6740 H   0  0  0  0  0  0  0  0  0  0  0  0
   21.6397    6.4151    0.2559 H   0  0  0  0  0  0  0  0  0  0  0  0
   23.4922    5.4714    2.0095 H   0  0  0  0  0  0  0  0  0  0  0  0
   25.3659    6.3974    3.3106 H   0  0  0  0  0  0  0  0  0  0  0  0
   23.2595   10.5076    4.9746 H   0  0  0  0  0  0  0  0  0  0  0  0
   21.7786   10.5797    6.0357 H   0  0  0  0  0  0  0  0  0  0  0  0
   24.6894   10.6747    6.9496 H   0  0  0  0  0  0  0  0  0  0  0  0
   23.5208   12.0146    6.9888 H   0  0  0  0  0  0  0  0  0  0  0  0
   21.8624    8.0028   10.1822 H   0  0  0  0  0  0  0  0  0  0  0  0
   24.3644   12.4854   10.2315 H   0  0  0  0  0  0  0  0  0  0  0  0
   23.0176   13.2084    9.4057 H   0  0  0  0  0  0  0  0  0  0  0  0
   22.8646   12.6227   13.5290 H   0  0  0  0  0  0  0  0  0  0  0  0
   24.3289   12.6500   12.4890 H   0  0  0  0  0  0  0  0  0  0  0  0
   23.2010   14.0481   12.4890 H   0  0  0  0  0  0  0  0  0  0  0  0
   20.7032   13.2575   12.2323 H   0  0  0  0  0  0  0  0  0  0  0  0
   21.2862   13.9643   10.6873 H   0  0  0  0  0  0  0  0  0  0  0  0
   20.4399   12.3799   10.6873 H   0  0  0  0  0  0  0  0  0  0  0  0
   22.9340   10.3841   12.4585 H   0  0  0  0  0  0  0  0  0  0  0  0
   21.2251   10.5706   12.1508 H   0  0  0  0  0  0  0  0  0  0  0  0
   20.7722    9.5688    4.2908 H   0  0  0  0  0  0  0  0  0  0  0  0
   20.0458    8.4874    3.0763 H   0  0  0  0  0  0  0  0  0  0  0  0
   19.4230    8.6880    5.6490 H   0  0  0  0  0  0  0  0  0  0  0  0
   20.0685    5.4184    4.1184 H   0  0  0  0  0  0  0  0  0  0  0  0
   18.0772    4.4958    4.3482 H   0  0  0  0  0  0  0  0  0  0  0  0
   16.8574    4.8924    3.0906 H   0  0  0  0  0  0  0  0  0  0  0  0
   17.6571    3.2839    3.0906 H   0  0  0  0  0  0  0  0  0  0  0  0
   23.8046    6.9238   -1.6736 H   0  0  0  0  0  0  0  0  0  0  0  0
  1  2  1  0
  1 50  1  0
  1 51  1  0
  1 52  1  0
  2  3  1  0
  2 53  1  1
  3  4  1  0
  3 54  1  0
  3 55  1  0
  4  5  1  0
  4  9  1  0
  5  6  1  0
  5 56  1  0
  6  7  1  0
  6 57  1  0
  6 58  1  0
  7  8  1  0
  5  8  1  0
  8 59  1  0
  8 60  1  0
  9 10  1  0
  9 61  1  0
  9 62  1  0
 10 11  1  0
 10 63  1  0
 10 64  1  0
  2 11  1  0
 11 12  1  0
 12 13  2  0
 13 14  1  0
 13 65  1  0
 14 15  2  0
 14 66  1  0
 15 16  1  0
 15 48  1  0
 16 17  1  0
 16 67  1  0
 17 18  2  0
 18 19  1  0
 18 68  1  0
 19 20  1  0
 19 43  2  0
 20 21  2  0
 21 22  1  0
 21 69  1  0
 22 23  2  0
 22 70  1  0
 23 24  1  0
 24 25  1  0
 24 40  2  0
 25 26  1  0
 26 27  1  0
 26 71  1  0
 26 72  1  0
 27 28  1  0
 27 73  1  0
 27 74  1  0
 28 29  1  0
 29 30  2  0
 29 38  1  0
 30 31  1  0
 30 75  1  0
 31 32  2  0
 28 32  1  0
 32 33  1  0
 33 34  1  0
 33 76  1  0
 33 77  1  0
 34 35  1  0
 34 36  1  0
 34 37  1  0
 35 78  1  0
 35 79  1  0
 35 80  1  0
 36 81  1  0
 36 82  1  0
 36 83  1  0
 31 37  1  0
 37 84  1  0
 37 85  1  0
 25 38  1  0
 38 39  2  0
 20 40  1  0
 40 41  1  0
 41 42  1  0
 41 86  1  0
 41 87  1  0
 42 88  1  0
 43 44  1  0
 43 89  1  0
 44 45  1  0
 44 46  1  0
 45 90  1  0
 45 91  1  0
 45 92  1  0
 17 46  1  0
 46 47  2  0
 48 49  2  0
 12 49  1  0
 49 93  1  0
M  END
>  <meeko>  (2) 


>  <energy": -13.023, "intermolecular_energy": -18.733, "internal_energy": 0.053}>  (2) 


>  <atom.dprop.PartialCharge>  (2) 
-0.16536013782024384 0.16022032499313354 0.0068332692608237267 -0.55763059854507446 -0.059848830103874207 0.15867239236831665 -0.40910711884498596 0.15867243707180023 0.028468387201428413
0.13457146286964417 -0.64908206462860107 0.10813096165657043 -0.26904946565628052 -0.40681272745132446 0.47775667905807495 -0.49728742241859436 0.098633460700511932 -0.37575274705886841
-0.12863601744174957 -0.061132069677114487 -0.30678442120552063 0.39389330148696899 -0.69080126285552979 0.2385803610086441 -0.40603259205818176 0.074091315269470215 0.070559173822402954
-0.1831362396478653 -0.2091308981180191 -0.25251728296279907 0.0094867926090955734 0.035021811723709106 -0.24694517254829407 -0.013438760302960873 -0.14218088984489441 -0.14218088984489441
-0.19771461188793182 0.70562970638275146 -0.640705406665802 -0.18440476059913635 0.16687671840190887 -0.66363364458084106 -0.21136550605297089 -0.18081569671630859 -0.027293160557746887
0.63271874189376831 -0.66942226886749268 -0.68717724084854126 0.15371091663837433 0.09505685418844223 0.09505685418844223 0.09505685418844223 0.088577248156070709 0.11737345159053802
0.11737345159053802 0.1431354284286499 0.1228957325220108 0.12289571017026901 0.12289569526910782 0.12289569526910782 0.10495702922344208 0.10495702922344208 0.098826393485069275
0.098826393485069275 0.20894302427768707 0.20504890382289886 0.38344496488571167 0.18884064257144928 0.19754248857498169 0.19633582234382629 0.090579017996788025 0.090579017996788025
0.057088941335678101 0.057088941335678101 0.19104327261447906 0.13486337661743164 0.13486337661743164 0.088574185967445374 0.088574185967445374 0.088574185967445374 0.088574185967445374
0.088574185967445374 0.088574185967445374 0.1250464916229248 0.1250464916229248 0.071863546967506409 0.071863546967506409 0.39339810609817505 0.20069411396980286 0.10675637423992157
0.10675637423992157 0.10675637423992157 0.19618259370326996

$$$$
btk_fenebrutinib_analogs.sdf_i0-again1_out1
     RDKit          3D

 95102  0  0  0  0  0  0  0  0999 V2000
   23.4720    5.7290   -6.2770 C   0  0  0  0  0  0  0  0  0  0  0  0
   24.2070    4.5190   -5.6770 C   0  0  1  0  0  0  0  0  0  0  0  0
   25.6030    4.4110   -6.3640 C   0  0  0  0  0  0  0  0  0  0  0  0
   26.4120    3.3080   -5.7850 N   0  0  0  0  0  0  0  0  0  0  0  0
   26.3790    2.0210   -6.3170 C   0  0  0  0  0  0  0  0  0  0  0  0
   27.1400    0.9820   -5.7450 C   0  0  0  0  0  0  0  0  0  0  0  0
   27.1670   -0.3150   -6.2820 C   0  0  0  0  0  0  0  0  0  0  0  0
   26.4290   -0.6130   -7.4160 C   0  0  0  0  0  0  0  0  0  0  0  0
   25.6660    0.3860   -8.0100 C   0  0  0  0  0  0  0  0  0  0  0  0
   25.6530    1.6810   -7.4670 C   0  0  0  0  0  0  0  0  0  0  0  0
   26.5900    3.4890   -4.3260 C   0  0  0  0  0  0  0  0  0  0  0  0
   25.2220    3.5870   -3.6120 C   0  0  0  0  0  0  0  0  0  0  0  0
   24.3930    4.6820   -4.1980 N   0  0  0  0  0  0  0  0  0  0  0  0
   23.2250    4.8600   -3.4320 C   0  0  0  0  0  0  0  0  0  0  0  0
   23.2900    5.6750   -2.3080 C   0  0  0  0  0  0  0  0  0  0  0  0
   22.1480    5.9140   -1.5430 C   0  0  0  0  0  0  0  0  0  0  0  0
   20.9380    5.3160   -1.9030 C   0  0  0  0  0  0  0  0  0  0  0  0
   19.7600    5.6200   -1.1590 N   0  0  0  0  0  0  0  0  0  0  0  0
   19.8430    5.4490    0.2310 C   0  0  0  0  0  0  0  0  0  0  0  0
   20.9350    5.7340    0.9640 C   0  0  0  0  0  0  0  0  0  0  0  0
   20.9260    5.7320    2.4130 C   0  0  0  0  0  0  0  0  0  0  0  0
   22.0100    6.3710    3.1990 C   0  0  0  0  0  0  0  0  0  0  0  0
   23.3100    6.1220    2.7470 C   0  0  0  0  0  0  0  0  0  0  0  0
   24.3640    6.6900    3.4210 C   0  0  0  0  0  0  0  0  0  0  0  0
   24.2060    7.4590    4.5120 N   0  0  0  0  0  0  0  0  0  0  0  0
   22.9530    7.6710    5.0000 C   0  0  0  0  0  0  0  0  0  0  0  0
   22.9160    8.4920    6.1660 N   0  0  0  0  0  0  0  0  0  0  0  0
   23.4860    9.8460    6.0300 C   0  0  0  0  0  0  0  0  0  0  0  0
   22.8380   10.8380    6.9830 C   0  0  0  0  0  0  0  0  0  0  0  0
   22.8090   10.2660    8.3090 N   0  0  0  0  0  0  0  0  0  0  0  0
   22.8360    8.8990    8.5280 C   0  0  0  0  0  0  0  0  0  0  0  0
   22.7660    8.6970    9.9100 C   0  0  0  0  0  0  0  0  0  0  0  0
   22.6810    9.9640   10.4970 C   0  0  0  0  0  0  0  0  0  0  0  0
   22.7210   10.8940    9.4950 C   0  0  0  0  0  0  0  0  0  0  0  0
   22.6040   12.2960    9.9290 C   0  0  0  0  0  0  0  0  0  0  0  0
   22.1490   12.0950   11.4340 C   0  0  0  0  0  0  0  0  0  0  0  0
   22.8420   13.0860   12.3630 C   0  0  0  0  0  0  0  0  0  0  0  0
   20.6230   12.2740   11.5180 C   0  0  0  0  0  0  0  0  0  0  0  0
   22.5410   10.6010   11.8210 C   0  0  0  0  0  0  0  0  0  0  0  0
   22.8990    7.9220    7.4540 C   0  0  0  0  0  0  0  0  0  0  0  0
   22.9230    6.7100    7.6690 O   0  0  0  0  0  0  0  0  0  0  0  0
   21.8070    7.1830    4.3410 C   0  0  0  0  0  0  0  0  0  0  0  0
   20.4060    7.5510    4.7490 C   0  0  0  0  0  0  0  0  0  0  0  0
   20.0980    8.8730    4.3450 O   0  0  0  0  0  0  0  0  0  0  0  0
   19.8390    5.2730    3.0500 C   0  0  0  0  0  0  0  0  0  0  0  0
   18.7290    4.8180    2.3570 N   0  0  0  0  0  0  0  0  0  0  0  0
   17.5860    4.3160    3.1060 C   0  0  0  0  0  0  0  0  0  0  0  0
   18.6130    4.9230    0.9630 C   0  0  0  0  0  0  0  0  0  0  0  0
   17.5950    4.5920    0.3560 O   0  0  0  0  0  0  0  0  0  0  0  0
   20.8610    4.4680   -2.9440 N   0  0  0  0  0  0  0  0  0  0  0  0
   21.9860    4.2660   -3.6830 C   0  0  0  0  0  0  0  0  0  0  0  0
   23.0866    6.3634   -5.4652 H   0  0  0  0  0  0  0  0  0  0  0  0
   24.1694    6.3109   -6.8975 H   0  0  0  0  0  0  0  0  0  0  0  0
   22.6342    5.3783   -6.8975 H   0  0  0  0  0  0  0  0  0  0  0  0
   23.6117    3.6099   -5.8482 H   0  0  0  0  0  0  0  0  0  0  0  0
   25.4589    4.2226   -7.4381 H   0  0  0  0  0  0  0  0  0  0  0  0
   26.1416    5.3560   -6.2004 H   0  0  0  0  0  0  0  0  0  0  0  0
   27.7348    1.1950   -4.8445 H   0  0  0  0  0  0  0  0  0  0  0  0
   27.7750   -1.0957   -5.8016 H   0  0  0  0  0  0  0  0  0  0  0  0
   26.4465   -1.6274   -7.8411 H   0  0  0  0  0  0  0  0  0  0  0  0
   25.0710    0.1614   -8.9075 H   0  0  0  0  0  0  0  0  0  0  0  0
   25.0510    2.4571   -7.9622 H   0  0  0  0  0  0  0  0  0  0  0  0
   27.1467    2.6307   -3.9217 H   0  0  0  0  0  0  0  0  0  0  0  0
   27.1451    4.4227   -4.1525 H   0  0  0  0  0  0  0  0  0  0  0  0
   24.6881    2.6318   -3.7237 H   0  0  0  0  0  0  0  0  0  0  0  0
   25.3954    3.8078   -2.5484 H   0  0  0  0  0  0  0  0  0  0  0  0
   24.2472    6.1341   -2.0200 H   0  0  0  0  0  0  0  0  0  0  0  0
   22.2001    6.5697   -0.6613 H   0  0  0  0  0  0  0  0  0  0  0  0
   19.0430    5.0040   -1.5360 H   0  0  0  0  0  0  0  0  0  0  0  0
   21.8721    5.9783    0.4422 H   0  0  0  0  0  0  0  0  0  0  0  0
   23.4852    5.4835    1.8686 H   0  0  0  0  0  0  0  0  0  0  0  0
   25.3836    6.5071    3.0509 H   0  0  0  0  0  0  0  0  0  0  0  0
   24.5639    9.8002    6.2447 H   0  0  0  0  0  0  0  0  0  0  0  0
   23.2978   10.1910    5.0026 H   0  0  0  0  0  0  0  0  0  0  0  0
   23.4206   11.7710    6.9965 H   0  0  0  0  0  0  0  0  0  0  0  0
   21.8127   11.0574    6.6504 H   0  0  0  0  0  0  0  0  0  0  0  0
   22.7759    7.7298   10.4338 H   0  0  0  0  0  0  0  0  0  0  0  0
   23.5671   12.8234    9.8628 H   0  0  0  0  0  0  0  0  0  0  0  0
   21.9216   12.9086    9.3216 H   0  0  0  0  0  0  0  0  0  0  0  0
   22.6466   12.8065   13.4088 H   0  0  0  0  0  0  0  0  0  0  0  0
   23.9257   13.0685   12.1752 H   0  0  0  0  0  0  0  0  0  0  0  0
   22.4536   14.0979   12.1752 H   0  0  0  0  0  0  0  0  0  0  0  0
   20.3156   12.3101   12.5736 H   0  0  0  0  0  0  0  0  0  0  0  0
   20.3359   13.2120   11.0202 H   0  0  0  0  0  0  0  0  0  0  0  0
   20.1266   11.4279   11.0202 H   0  0  0  0  0  0  0  0  0  0  0  0
   23.4871   10.5690   12.3813 H   0  0  0  0  0  0  0  0  0  0  0  0
   21.8070   10.1064   12.4742 H   0  0  0  0  0  0  0  0  0  0  0  0
   19.6976    6.8547    4.2764 H   0  0  0  0  0  0  0  0  0  0  0  0
   20.3288    7.4889    5.8445 H   0  0  0  0  0  0  0  0  0  0  0  0
   20.2590    9.4390    5.1340 H   0  0  0  0  0  0  0  0  0  0  0  0
   19.8284    5.2573    4.1498 H   0  0  0  0  0  0  0  0  0  0  0  0
   17.7867    4.4041    4.1839 H   0  0  0  0  0  0  0  0  0  0  0  0
   16.6927    4.9046    2.8500 H   0  0  0  0  0  0  0  0  0  0  0  0
   17.4150    3.2600    2.8500 H   0  0  0  0  0  0  0  0  0  0  0  0
   21.9140    3.5835   -4.5427 H   0  0  0  0  0  0  0  0  0  0  0  0
  1  2  1  0
  1 52  1  0
  1 53  1  0
  1 54  1  0
  2  3  1  0
  2 55  1  1
  3  4  1  0
  3 56  1  0
  3 57  1  0
  4  5  1  0
  4 11  1  0
  5  6  2  0
  6  7  1  0
  6 58  1  0
  7  8  2  0
  7 59  1  0
  8  9  1  0
  8 60  1  0
  9 10  2  0
  9 61  1  0
  5 10  1  0
 10 62  1  0
 11 12  1  0
 11 63  1  0
 11 64  1  0
 12 13  1  0
 12 65  1  0
 12 66  1  0
  2 13  1  0
 13 14  1  0
 14 15  2  0
 15 16  1  0
 15 67  1  0
 16 17  2  0
 16 68  1  0
 17 18  1  0
 17 50  1  0
 18 19  1  0
 18 69  1  0
 19 20  2  0
 20 21  1  0
 20 70  1  0
 21 22  1  0
 21 45  2  0
 22 23  2  0
 23 24  1  0
 23 71  1  0
 24 25  2  0
 24 72  1  0
 25 26  1  0
 26 27  1  0
 26 42  2  0
 27 28  1  0
 28 29  1  0
 28 73  1  0
 28 74  1  0
 29 30  1  0
 29 75  1  0
 29 76  1  0
 30 31  1  0
 31 32  2  0
 31 40  1  0
 32 33  1  0
 32 77  1  0
 33 34  2  0
 30 34  1  0
 34 35  1  0
 35 36  1  0
 35 78  1  0
 35 79  1  0
 36 37  1  0
 36 38  1  0
 36 39  1  0
 37 80  1  0
 37 81  1  0
 37 82  1  0
 38 83  1  0
 38 84  1  0
 38 85  1  0
 33 39  1  0
 39 86  1  0
 39 87  1  0
 27 40  1  0
 40 41  2  0
 22 42  1  0
 42 43  1  0
 43 44  1  0
 43 88  1  0
 43 89  1  0
 44 90  1  0
 45 46  1  0
 45 91  1  0
 46 47  1  0
 46 48  1  0
 47 92  1  0
 47 93  1  0
 47 94  1  0
 19 48  1  0
 48 49  2  0
 50 51  2  0
 14 51  1  0
 51 95  1  0
M  END
>  <meeko>  (3) 


>  <energy": -12.622, "intermolecular_energy": -18.157, "internal_energy": -0.304}>  (3) 


>  <atom.dprop.PartialCharge>  (3) 
-0.16035519540309906 0.14419135451316833 0.1069638654589653 -0.65934556722640991 0.27656039595603943 -0.3824298083782196 -0.13019242882728577 -0.2487640380859375 -0.13019244372844696
-0.3824298083782196 0.11497538536787033 0.12029469013214111 -0.64572775363922119 0.1223725751042366 -0.26205164194107056 -0.40245920419692993 0.48290804028511047 -0.49475222826004028
0.10391927510499954 -0.36901369690895081 -0.12517674267292023 -0.05789724737405777 -0.30061575770378113 0.40081179141998291 -0.68692302703857422 0.24254949390888214 -0.40346091985702515
0.075599543750286102 0.072144396603107452 -0.17972999811172485 -0.20376282930374146 -0.24665080010890961 0.014373501762747765 0.050466060638427734 -0.24500925838947296
-0.011663373559713364 -0.14097321033477783 -0.14097324013710022 -0.195995032787323 0.70766681432723999 -0.63153243064880371 -0.18086729943752289 0.16837118566036224 -0.66161960363388062
-0.20682817697525024 -0.17817719280719757 -0.025778181850910187 0.63484519720077515 -0.65940773487091064 -0.68328255414962769 0.16279956698417664 0.095928110182285309 0.095928110182285309
0.095928110182285309 0.091077178716659546 0.10788234323263168 0.10788235068321228 0.22514815628528595 0.23650585114955902 0.23135063052177429 0.23650586605072021 0.22514823079109192
0.10079116374254227 0.10079116374254227 0.098348915576934814 0.098348893225193024 0.21344959735870361 0.20946513116359711 0.38677603006362915 0.19253531098365784 0.20181450247764587
0.20149554312229156 0.094862863421440125 0.094862863421440125 0.061246316879987717 0.061246328055858612 0.19539637863636017 0.13826042413711548 0.13826042413711548 0.091636896133422852
0.091636896133422852 0.091636896133422852 0.091636903584003448 0.091636903584003448 0.091636903584003448 0.1287095695734024 0.12870955467224121 0.07551293820142746 0.07551293820142746
0.39671540260314941 0.20494911074638367 0.11138711869716644 0.11138711869716644 0.11138711869716644 0.20089557766914368

$$$$
btk_fenebrutinib_analogs.sdf_i0-again2_out1
     RDKit          3D

 95102  0  0  0  0  0  0  0  0999 V2000
   23.4690    6.3710   -5.8610 C   0  0  0  0  0  0  0  0  0  0  0  0
   24.3770    5.1330   -5.9260 C   0  0  1  0  0  0  0  0  0  0  0  0
   25.8810    5.5400   -5.9380 C   0  0  0  0  0  0  0  0  0  0  0  0
   26.5370    5.4050   -4.6240 N   0  0  0  0  0  0  0  0  0  0  0  0
   26.6440    6.4550   -3.7590 C   0  0  0  0  0  0  0  0  0  0  0  0
   26.4130    7.8260   -4.0110 C   0  0  0  0  0  0  0  0  0  0  0  0
   26.7230    8.6110   -2.9690 N   0  0  0  0  0  0  0  0  0  0  0  0
   27.0840    7.7290   -2.0220 N   0  0  0  0  0  0  0  0  0  0  0  0
   27.5320    8.2080   -0.7350 C   0  0  0  0  0  0  0  0  0  0  0  0
   27.0180    6.4240   -2.4330 C   0  0  0  0  0  0  0  0  0  0  0  0
   26.4850    4.0270   -4.0830 C   0  0  0  0  0  0  0  0  0  0  0  0
   25.2520    3.2200   -4.5620 C   0  0  0  0  0  0  0  0  0  0  0  0
   24.0770    4.0450   -4.9250 N   0  0  0  0  0  0  0  0  0  0  0  0
   23.1730    4.3470   -3.9060 C   0  0  0  0  0  0  0  0  0  0  0  0
   23.5010    5.0350   -2.7410 C   0  0  0  0  0  0  0  0  0  0  0  0
   22.4990    5.4630   -1.8630 C   0  0  0  0  0  0  0  0  0  0  0  0
   21.1680    5.1810   -2.1500 C   0  0  0  0  0  0  0  0  0  0  0  0
   20.1770    5.7420   -1.3140 N   0  0  0  0  0  0  0  0  0  0  0  0
   20.1740    5.6050    0.0680 C   0  0  0  0  0  0  0  0  0  0  0  0
   21.1460    6.0860    0.8640 C   0  0  0  0  0  0  0  0  0  0  0  0
   21.1360    5.9230    2.3070 C   0  0  0  0  0  0  0  0  0  0  0  0
   22.1170    6.5960    3.1830 C   0  0  0  0  0  0  0  0  0  0  0  0
   23.4520    6.6260    2.7740 C   0  0  0  0  0  0  0  0  0  0  0  0
   24.3570    7.2930    3.5700 C   0  0  0  0  0  0  0  0  0  0  0  0
   24.0190    7.9460    4.6970 N   0  0  0  0  0  0  0  0  0  0  0  0
   22.7210    7.9300    5.0990 C   0  0  0  0  0  0  0  0  0  0  0  0
   22.4240    8.7370    6.2260 N   0  0  0  0  0  0  0  0  0  0  0  0
   21.9580   10.1160    6.0180 C   0  0  0  0  0  0  0  0  0  0  0  0
   22.6070   11.1000    6.9840 C   0  0  0  0  0  0  0  0  0  0  0  0
   22.4910   10.5790    8.3260 N   0  0  0  0  0  0  0  0  0  0  0  0
   22.5170    9.2170    8.5760 C   0  0  0  0  0  0  0  0  0  0  0  0
   22.4320    9.0420    9.9570 C   0  0  0  0  0  0  0  0  0  0  0  0
   22.3060   10.3250   10.5130 C   0  0  0  0  0  0  0  0  0  0  0  0
   22.3380   11.2340    9.4930 C   0  0  0  0  0  0  0  0  0  0  0  0
   22.2040   12.6430    9.9000 C   0  0  0  0  0  0  0  0  0  0  0  0
   22.3650   12.5140   11.4760 C   0  0  0  0  0  0  0  0  0  0  0  0
   23.7840   12.9450   11.8880 C   0  0  0  0  0  0  0  0  0  0  0  0
   21.3340   13.3850   12.2000 C   0  0  0  0  0  0  0  0  0  0  0  0
   22.1470   10.9770   11.8280 C   0  0  0  0  0  0  0  0  0  0  0  0
   22.6330    8.2250    7.5150 C   0  0  0  0  0  0  0  0  0  0  0  0
   22.8420    7.0380    7.7590 O   0  0  0  0  0  0  0  0  0  0  0  0
   21.7290    7.2350    4.3860 C   0  0  0  0  0  0  0  0  0  0  0  0
   20.3230    7.1000    4.9040 C   0  0  0  0  0  0  0  0  0  0  0  0
   19.5690    8.2590    4.5780 O   0  0  0  0  0  0  0  0  0  0  0  0
   20.1890    5.1440    2.8610 C   0  0  0  0  0  0  0  0  0  0  0  0
   19.1530    4.6230    2.1110 N   0  0  0  0  0  0  0  0  0  0  0  0
   18.0880    3.9070    2.7920 C   0  0  0  0  0  0  0  0  0  0  0  0
   18.9650    4.9620    0.7630 C   0  0  0  0  0  0  0  0  0  0  0  0
   17.8840    4.8270    0.1930 O   0  0  0  0  0  0  0  0  0  0  0  0
   20.8260    4.4230   -3.2090 N   0  0  0  0  0  0  0  0  0  0  0  0
   21.8180    4.0460   -4.0570 C   0  0  0  0  0  0  0  0  0  0  0  0
   23.2783    6.6310   -4.8093 H   0  0  0  0  0  0  0  0  0  0  0  0
   23.9636    7.2153   -6.3636 H   0  0  0  0  0  0  0  0  0  0  0  0
   22.5151    6.1529   -6.3636 H   0  0  0  0  0  0  0  0  0  0  0  0
   24.1353    4.6569   -6.8877 H   0  0  0  0  0  0  0  0  0  0  0  0
   26.4096    4.8987   -6.6587 H   0  0  0  0  0  0  0  0  0  0  0  0
   25.9264    6.6036   -6.2148 H   0  0  0  0  0  0  0  0  0  0  0  0
   26.0194    8.2098   -4.9638 H   0  0  0  0  0  0  0  0  0  0  0  0
   27.0145    7.6547    0.0626 H   0  0  0  0  0  0  0  0  0  0  0  0
   28.6173    8.0535   -0.6437 H   0  0  0  0  0  0  0  0  0  0  0  0
   27.3054    9.2805   -0.6437 H   0  0  0  0  0  0  0  0  0  0  0  0
   27.2227    5.5298   -1.8259 H   0  0  0  0  0  0  0  0  0  0  0  0
   27.3939    3.4944   -4.3995 H   0  0  0  0  0  0  0  0  0  0  0  0
   26.4103    4.1120   -2.9888 H   0  0  0  0  0  0  0  0  0  0  0  0
   25.5470    2.6357   -5.4460 H   0  0  0  0  0  0  0  0  0  0  0  0
   24.9417    2.5927   -3.7133 H   0  0  0  0  0  0  0  0  0  0  0  0
   24.5558    5.2437   -2.5089 H   0  0  0  0  0  0  0  0  0  0  0  0
   22.7627    6.0192   -0.9513 H   0  0  0  0  0  0  0  0  0  0  0  0
   19.9210    6.6640   -1.6500 H   0  0  0  0  0  0  0  0  0  0  0  0
   21.9851    6.6264    0.4016 H   0  0  0  0  0  0  0  0  0  0  0  0
   23.7711    6.1320    1.8444 H   0  0  0  0  0  0  0  0  0  0  0  0
   25.4146    7.2918    3.2676 H   0  0  0  0  0  0  0  0  0  0  0  0
   22.2002   10.4194    4.9888 H   0  0  0  0  0  0  0  0  0  0  0  0
   20.8731   10.1345    6.1986 H   0  0  0  0  0  0  0  0  0  0  0  0
   23.6691   11.2252    6.7264 H   0  0  0  0  0  0  0  0  0  0  0  0
   22.1046   12.0763    6.9171 H   0  0  0  0  0  0  0  0  0  0  0  0
   22.4585    8.0873   10.5028 H   0  0  0  0  0  0  0  0  0  0  0  0
   22.9961   13.2681    9.4619 H   0  0  0  0  0  0  0  0  0  0  0  0
   21.2695   13.1240    9.5754 H   0  0  0  0  0  0  0  0  0  0  0  0
   23.8564   12.9670   12.9854 H   0  0  0  0  0  0  0  0  0  0  0  0
   24.5159   12.2286   11.4865 H   0  0  0  0  0  0  0  0  0  0  0  0
   23.9938   13.9474   11.4865 H   0  0  0  0  0  0  0  0  0  0  0  0
   21.4617   13.2771   13.2872 H   0  0  0  0  0  0  0  0  0  0  0  0
   21.4795   14.4378   11.9164 H   0  0  0  0  0  0  0  0  0  0  0  0
   20.3203   13.0656   11.9164 H   0  0  0  0  0  0  0  0  0  0  0  0
   22.9037   10.6212   12.5427 H   0  0  0  0  0  0  0  0  0  0  0  0
   21.1792   10.7689   12.3076 H   0  0  0  0  0  0  0  0  0  0  0  0
   19.8502    6.2180    4.4473 H   0  0  0  0  0  0  0  0  0  0  0  0
   20.3518    6.9852    5.9976 H   0  0  0  0  0  0  0  0  0  0  0  0
   18.7790    8.2450    5.1480 H   0  0  0  0  0  0  0  0  0  0  0  0
   20.2412    4.9169    3.9360 H   0  0  0  0  0  0  0  0  0  0  0  0
   18.2226    3.9975    3.8800 H   0  0  0  0  0  0  0  0  0  0  0  0
   17.1164    4.3360    2.5058 H   0  0  0  0  0  0  0  0  0  0  0  0
   18.1186    2.8453    2.5058 H   0  0  0  0  0  0  0  0  0  0  0  0
   21.5292    3.4532   -4.9375 H   0  0  0  0  0  0  0  0  0  0  0  0
  1  2  1  0
  1 52  1  0
  1 53  1  0
  1 54  1  0
  2  3  1  0
  2 55  1  6
  3  4  1  0
  3 56  1  0
  3 57  1  0
  4  5  1  0
  4 11  1  0
  5  6  1  0
  6  7  2  0
  6 58  1  0
  7  8  1  0
  8  9  1  0
  8 10  1  0
  9 59  1  0
  9 60  1  0
  9 61  1  0
  5 10  2  0
 10 62  1  0
 11 12  1  0
 11 63  1  0
 11 64  1  0
 12 13  1  0
 12 65  1  0
 12 66  1  0
  2 13  1  0
 13 14  1  0
 14 15  2  0
 15 16  1  0
 15 67  1  0
 16 17  2  0
 16 68  1  0
 17 18  1  0
 17 50  1  0
 18 19  1  0
 18 69  1  0
 19 20  2  0
 20 21  1  0
 20 70  1  0
 21 22  1  0
 21 45  2  0
 22 23  2  0
 23 24  1  0
 23 71  1  0
 24 25  2  0
 24 72  1  0
 25 26  1  0
 26 27  1  0
 26 42  2  0
 27 28  1  0
 28 29  1  0
 28 73  1  0
 28 74  1  0
 29 30  1  0
 29 75  1  0
 29 76  1  0
 30 31  1  0
 31 32  2  0
 31 40  1  0
 32 33  1  0
 32 77  1  0
 33 34  2  0
 30 34  1  0
 34 35  1  0
 35 36  1  0
 35 78  1  0
 35 79  1  0
 36 37  1  0
 36 38  1  0
 36 39  1  0
 37 80  1  0
 37 81  1  0
 37 82  1  0
 38 83  1  0
 38 84  1  0
 38 85  1  0
 33 39  1  0
 39 86  1  0
 39 87  1  0
 27 40  1  0
 40 41  2  0
 22 42  1  0
 42 43  1  0
 43 44  1  0
 43 88  1  0
 43 89  1  0
 44 90  1  0
 45 46  1  0
 45 91  1  0
 46 47  1  0
 46 48  1  0
 47 92  1  0
 47 93  1  0
 47 94  1  0
 19 48  1  0
 48 49  2  0
 50 51  2  0
 14 51  1  0
 51 95  1  0
M  END
>  <meeko>  (4) 


>  <energy": -12.182, "intermolecular_energy": -17.524, "internal_energy": -0.578}>  (4) 


>  <atom.dprop.PartialCharge>  (4) 
-0.16123156249523163 0.13685488700866699 0.17290747165679932 -0.68344944715499878 0.2421066015958786 0.029343847185373306 -0.40284425020217896 0.10578934848308563 0.062566667795181274
-0.22427526116371155 0.18364165723323822 0.11035379022359848 -0.64597773551940918 0.11854322254657745 -0.26707988977432251 -0.40558746457099915 0.47920650243759155 -0.49657389521598816
0.10012105852365494 -0.37385609745979309 -0.12766246497631073 -0.060221537947654724 -0.30504831671714783 0.39584037661552429 -0.68970978260040283 0.23969747126102448 -0.40530881285667419
0.074515834450721741 0.071005307137966156 -0.18217751383781433 -0.20762015879154205 -0.25086617469787598 0.01086205430328846 0.0393684022128582 -0.24640032649040222 -0.012939094565808773
-0.14184097945690155 -0.14184100925922394 -0.19723062217235565 0.70620304346084595 -0.63812369108200073 -0.18340916931629181 0.16729733347892761 -0.6630668044090271 -0.21008847653865814
-0.18007314205169678 -0.026866821572184563 0.63331729173660278 -0.666603684425354 -0.68608111143112183 0.15626877546310425 0.093765445053577423 0.093765445053577423 0.093765445053577423
0.088232167065143585 0.092175118625164032 0.092175126075744629 0.1869991272687912 0.048629056662321091 0.048629056662321091 0.048629056662321091 0.19458647072315216 0.087592661380767822
0.087592661380767822 0.093974821269512177 0.093974828720092773 0.2102113664150238 0.20629182457923889 0.3843824565410614 0.18988050520420074 0.19874481856822968 0.19778800010681152
0.091784670948982239 0.091784670948982239 0.05825897678732872 0.058258987963199615 0.19226840138435364 0.1358194500207901 0.1358194500207901 0.089436151087284088 0.089436151087284088
0.089436151087284088 0.089436158537864685 0.089436158537864685 0.089436158537864685 0.12607747316360474 0.12607745826244354 0.072890646755695343 0.072890646755695343 0.39433175325393677
0.20189169049263 0.10805968195199966 0.10805968195199966 0.10805968195199966 0.19750902056694031

$$$$
btk_fenebrutinib_analogs.sdf_i0-again3_out1
     RDKit          3D

100106  0  0  0  0  0  0  0  0999 V2000
   27.4470   11.4300   -8.3770 C   0  0  0  0  0  0  0  0  0  0  0  0
   26.4420   10.6830   -7.5070 C   0  0  0  0  0  0  0  0  0  0  0  0
   27.0200    9.3330   -7.0800 N   0  0  0  0  0  0  0  0  0  0  0  0
   27.4260    8.5060   -8.2920 C   0  0  0  0  0  0  0  0  0  0  0  0
   26.3990    7.4260   -8.5790 C   0  0  0  0  0  0  0  0  0  0  0  0
   26.1210    8.6700   -6.0060 C   0  0  2  0  0  0  0  0  0  0  0  0
   24.9260    9.5640   -5.7080 C   0  0  0  0  0  0  0  0  0  0  0  0
   23.9210    8.8180   -4.8220 C   0  0  0  0  0  0  0  0  0  0  0  0
   24.5570    7.6260   -4.2230 N   0  0  0  0  0  0  0  0  0  0  0  0
   23.6180    6.9160   -3.4460 C   0  0  0  0  0  0  0  0  0  0  0  0
   23.0510    5.7530   -3.9660 C   0  0  0  0  0  0  0  0  0  0  0  0
   22.1020    5.0350   -3.2340 C   0  0  0  0  0  0  0  0  0  0  0  0
   21.6930    5.5160   -1.9980 C   0  0  0  0  0  0  0  0  0  0  0  0
   20.7050    4.8040   -1.2860 N   0  0  0  0  0  0  0  0  0  0  0  0
   20.5120    5.0680    0.0640 C   0  0  0  0  0  0  0  0  0  0  0  0
   21.4650    5.5320    0.8940 C   0  0  0  0  0  0  0  0  0  0  0  0
   21.2130    5.7940    2.2920 C   0  0  0  0  0  0  0  0  0  0  0  0
   22.2050    6.3610    3.2280 C   0  0  0  0  0  0  0  0  0  0  0  0
   23.5550    6.1810    2.9140 C   0  0  0  0  0  0  0  0  0  0  0  0
   24.5000    6.8200    3.6820 C   0  0  0  0  0  0  0  0  0  0  0  0
   24.1930    7.6300    4.7100 N   0  0  0  0  0  0  0  0  0  0  0  0
   22.8850    7.7360    5.0670 C   0  0  0  0  0  0  0  0  0  0  0  0
   22.6110    8.5990    6.1580 N   0  0  0  0  0  0  0  0  0  0  0  0
   22.9170   10.0180    5.9470 C   0  0  0  0  0  0  0  0  0  0  0  0
   22.1240   10.8960    6.9050 C   0  0  0  0  0  0  0  0  0  0  0  0
   22.3530   10.4240    8.2530 N   0  0  0  0  0  0  0  0  0  0  0  0
   22.6570    9.0910    8.5090 C   0  0  0  0  0  0  0  0  0  0  0  0
   22.9000    8.9830    9.8850 C   0  0  0  0  0  0  0  0  0  0  0  0
   22.7220   10.2690   10.4190 C   0  0  0  0  0  0  0  0  0  0  0  0
   22.3440   11.1090    9.4090 C   0  0  0  0  0  0  0  0  0  0  0  0
   22.0570   12.5000    9.8010 C   0  0  0  0  0  0  0  0  0  0  0  0
   22.5940   12.5110   11.2940 C   0  0  0  0  0  0  0  0  0  0  0  0
   23.9340   13.2650   11.3460 C   0  0  0  0  0  0  0  0  0  0  0  0
   21.5930   13.1980   12.2260 C   0  0  0  0  0  0  0  0  0  0  0  0
   22.7890   10.9780   11.7160 C   0  0  0  0  0  0  0  0  0  0  0  0
   22.7090    8.0770    7.4580 C   0  0  0  0  0  0  0  0  0  0  0  0
   22.8040    6.8760    7.6990 O   0  0  0  0  0  0  0  0  0  0  0  0
   21.8420    7.1270    4.3570 C   0  0  0  0  0  0  0  0  0  0  0  0
   20.3980    7.3650    4.7040 C   0  0  0  0  0  0  0  0  0  0  0  0
   20.0550    8.7100    4.3870 O   0  0  0  0  0  0  0  0  0  0  0  0
   19.9860    5.5600    2.7890 C   0  0  0  0  0  0  0  0  0  0  0  0
   18.9620    5.0770    2.0050 N   0  0  0  0  0  0  0  0  0  0  0  0
   17.6880    4.7740    2.6400 C   0  0  0  0  0  0  0  0  0  0  0  0
   19.1360    4.7600    0.6540 C   0  0  0  0  0  0  0  0  0  0  0  0
   18.2610    4.2160   -0.0170 O   0  0  0  0  0  0  0  0  0  0  0  0
   22.2430    6.6260   -1.4580 N   0  0  0  0  0  0  0  0  0  0  0  0
   23.1740    7.2900   -2.1780 C   0  0  0  0  0  0  0  0  0  0  0  0
   25.8650    7.8940   -3.5840 C   0  0  1  0  0  0  0  0  0  0  0  0
   26.4260    6.7120   -2.7710 C   0  0  0  0  0  0  0  0  0  0  0  0
   26.8570    8.2520   -4.7200 C   0  0  0  0  0  0  0  0  0  0  0  0
   28.1636   11.9626   -7.7345 H   0  0  0  0  0  0  0  0  0  0  0  0
   27.9870   10.7123   -9.0121 H   0  0  0  0  0  0  0  0  0  0  0  0
   26.9154   12.1540   -9.0121 H   0  0  0  0  0  0  0  0  0  0  0  0
   26.2183   11.2827   -6.6124 H   0  0  0  0  0  0  0  0  0  0  0  0
   25.5206   10.5146   -8.0838 H   0  0  0  0  0  0  0  0  0  0  0  0
   27.5083    9.1666   -9.1677 H   0  0  0  0  0  0  0  0  0  0  0  0
   28.3926    8.0250   -8.0816 H   0  0  0  0  0  0  0  0  0  0  0  0
   26.0157    7.0230   -7.6300 H   0  0  0  0  0  0  0  0  0  0  0  0
   25.5676    7.8551   -9.1575 H   0  0  0  0  0  0  0  0  0  0  0  0
   26.8693    6.6172   -9.1575 H   0  0  0  0  0  0  0  0  0  0  0  0
   25.7724    7.7202   -6.4377 H   0  0  0  0  0  0  0  0  0  0  0  0
   25.2696   10.4695   -5.1864 H   0  0  0  0  0  0  0  0  0  0  0  0
   24.4375    9.8410   -6.6538 H   0  0  0  0  0  0  0  0  0  0  0  0
   23.5760    9.4875   -4.0203 H   0  0  0  0  0  0  0  0  0  0  0  0
   23.0670    8.4988   -5.4374 H   0  0  0  0  0  0  0  0  0  0  0  0
   23.3538    5.3975   -4.9620 H   0  0  0  0  0  0  0  0  0  0  0  0
   21.6837    4.0990   -3.6328 H   0  0  0  0  0  0  0  0  0  0  0  0
   20.7820    3.8170   -1.5020 H   0  0  0  0  0  0  0  0  0  0  0  0
   22.4722    5.7184    0.4930 H   0  0  0  0  0  0  0  0  0  0  0  0
   23.8552    5.5419    2.0706 H   0  0  0  0  0  0  0  0  0  0  0  0
   25.5617    6.6601    3.4428 H   0  0  0  0  0  0  0  0  0  0  0  0
   23.9917   10.1828    6.1141 H   0  0  0  0  0  0  0  0  0  0  0  0
   22.6413   10.2862    4.9164 H   0  0  0  0  0  0  0  0  0  0  0  0
   22.4584   11.9401    6.8152 H   0  0  0  0  0  0  0  0  0  0  0  0
   21.0519   10.8457    6.6641 H   0  0  0  0  0  0  0  0  0  0  0  0
   23.1753    8.0720   10.4367 H   0  0  0  0  0  0  0  0  0  0  0  0
   22.6019   13.2180    9.1705 H   0  0  0  0  0  0  0  0  0  0  0  0
   21.0016   12.7919    9.6967 H   0  0  0  0  0  0  0  0  0  0  0  0
   24.2228   13.4275   12.3949 H   0  0  0  0  0  0  0  0  0  0  0  0
   24.7091   12.6706   10.8401 H   0  0  0  0  0  0  0  0  0  0  0  0
   23.8282   14.2360   10.8401 H   0  0  0  0  0  0  0  0  0  0  0  0
   21.8739   13.0052   13.2719 H   0  0  0  0  0  0  0  0  0  0  0  0
   21.6011   14.2818   12.0380 H   0  0  0  0  0  0  0  0  0  0  0  0
   20.5846   12.8007   12.0380 H   0  0  0  0  0  0  0  0  0  0  0  0
   23.7630   10.8220   12.2028 H   0  0  0  0  0  0  0  0  0  0  0  0
   22.0407   10.6281   12.4424 H   0  0  0  0  0  0  0  0  0  0  0  0
   19.7628    6.6775    4.1262 H   0  0  0  0  0  0  0  0  0  0  0  0
   20.2424    7.1877    5.7784 H   0  0  0  0  0  0  0  0  0  0  0  0
   20.9030    9.1930    4.2980 H   0  0  0  0  0  0  0  0  0  0  0  0
   19.7943    5.7603    3.8535 H   0  0  0  0  0  0  0  0  0  0  0  0
   17.8073    4.8024    3.7331 H   0  0  0  0  0  0  0  0  0  0  0  0
   16.9391    5.5191    2.3334 H   0  0  0  0  0  0  0  0  0  0  0  0
   17.3547    3.7715    2.3334 H   0  0  0  0  0  0  0  0  0  0  0  0
   23.6146    8.1931   -1.7304 H   0  0  0  0  0  0  0  0  0  0  0  0
   25.7279    8.7103   -2.8595 H   0  0  0  0  0  0  0  0  0  0  0  0
   26.3248    6.9251   -1.6966 H   0  0  0  0  0  0  0  0  0  0  0  0
   25.8655    5.7983   -3.0179 H   0  0  0  0  0  0  0  0  0  0  0  0
   27.4883    6.5685   -3.0179 H   0  0  0  0  0  0  0  0  0  0  0  0
   27.4949    9.0842   -4.3875 H   0  0  0  0  0  0  0  0  0  0  0  0
   27.4596    7.3594   -4.9438 H   0  0  0  0  0  0  0  0  0  0  0  0
  1  2  1  0
  1 51  1  0
  1 52  1  0
  1 53  1  0
  2  3  1  0
  2 54  1  0
  2 55  1  0
  3  4  1  0
  3  6  1  0
  4  5  1  0
  4 56  1  0
  4 57  1  0
  5 58  1  0
  5 59  1  0
  5 60  1  0
  6  7  1  0
  6 61  1  6
  7  8  1  0
  7 62  1  0
  7 63  1  0
  8  9  1  0
  8 64  1  0
  8 65  1  0
  9 10  1  0
  9 48  1  0
 10 11  2  0
 11 12  1  0
 11 66  1  0
 12 13  2  0
 12 67  1  0
 13 14  1  0
 13 46  1  0
 14 15  1  0
 14 68  1  0
 15 16  2  0
 16 17  1  0
 16 69  1  0
 17 18  1  0
 17 41  2  0
 18 19  2  0
 19 20  1  0
 19 70  1  0
 20 21  2  0
 20 71  1  0
 21 22  1  0
 22 23  1  0
 22 38  2  0
 23 24  1  0
 24 25  1  0
 24 72  1  0
 24 73  1  0
 25 26  1  0
 25 74  1  0
 25 75  1  0
 26 27  1  0
 27 28  2  0
 27 36  1  0
 28 29  1  0
 28 76  1  0
 29 30  2  0
 26 30  1  0
 30 31  1  0
 31 32  1  0
 31 77  1  0
 31 78  1  0
 32 33  1  0
 32 34  1  0
 32 35  1  0
 33 79  1  0
 33 80  1  0
 33 81  1  0
 34 82  1  0
 34 83  1  0
 34 84  1  0
 29 35  1  0
 35 85  1  0
 35 86  1  0
 23 36  1  0
 36 37  2  0
 18 38  1  0
 38 39  1  0
 39 40  1  0
 39 87  1  0
 39 88  1  0
 40 89  1  0
 41 42  1  0
 41 90  1  0
 42 43  1  0
 42 44  1  0
 43 91  1  0
 43 92  1  0
 43 93  1  0
 15 44  1  0
 44 45  2  0
 46 47  2  0
 10 47  1  0
 47 94  1  0
 48 49  1  0
 48 50  1  0
 48 95  1  1
 49 96  1  0
 49 97  1  0
 49 98  1  0
  6 50  1  0
 50 99  1  0
 50100  1  0
M  END
>  <meeko>  (5) 


>  <energy": -11.344, "intermolecular_energy": -17.644, "internal_energy": 0.014}>  (5) 


>  <atom.dprop.PartialCharge>  (5) 
-0.139481320977211 0.083679512143135071 -0.71802425384521484 0.083679504692554474 -0.13948133587837219 0.16031785309314728 -0.16803854703903198 0.13796974718570709 -0.65434122085571289
0.1138647198677063 -0.27002620697021484 -0.40742048621177673 0.47703772783279419 -0.49764135479927063 0.097895607352256775 -0.37669342756271362 -0.12911885976791382 -0.061583623290061951
-0.30764526128768921 0.39292740821838379 -0.69134265184402466 0.23802641034126282 -0.40639153122901917 0.07388082891702652 0.070337973535060883 -0.18361163139343262 -0.20988039672374725
-0.25333619117736816 0.0088047999888658524 0.032866097986698151 -0.2472153902053833 -0.013686640188097954 -0.14234945178031921 -0.14234943687915802 -0.19795452058315277 0.70534545183181763
-0.64198559522628784 -0.18489842116832733 0.1666681170463562 -0.66391485929489136 -0.21199870109558105 -0.18118405342102051 -0.027504671365022659 0.63242202997207642 -0.67081999778747559
-0.6877208948135376 0.15244224667549133 0.16152578592300415 -0.16055767238140106 -0.1797662228345871 0.08592291921377182 0.085922971367835999 0.085922971367835999 0.093758329749107361
0.093758329749107361 0.093758329749107361 0.093758329749107361 0.085922971367835999 0.085922971367835999 0.085922934114933014 0.088916443288326263 0.12588256597518921 0.12588256597518921
0.087149903178215027 0.087149903178215027 0.20831400156021118 0.20443254709243774 0.38297995924949646 0.18832497298717499 0.19694618880748749 0.19561561942100525 0.089981041848659515
0.089981041848659515 0.056508593261241913 0.056508593261241913 0.19043572247028351 0.13438922166824341 0.13438922166824341 0.088146723806858063 0.088146723806858063 0.088146723806858063
0.088146708905696869 0.088146708905696869 0.088146708905696869 0.12453522533178329 0.12453522533178329 0.071354180574417114 0.071354180574417114 0.39293515682220459 0.20010022819042206
0.10611007362604141 0.10611007362604141 0.10611007362604141 0.19552479684352875 0.067992016673088074 0.091213859617710114 0.091213859617710114 0.091213859617710114 0.13736498355865479
0.13736498355865479

$$$$
